<?xml version="1.0" encoding="utf-8"?>
<routes>
 <trip depart="1.0" departLane="best" departSpeed="max" from="79122894" id="rs_c000_i001_0" to="102332987#0"/>
 <trip depart="1.0" departLane="best" departSpeed="max" from="-9640099" id="rs_c000_i000_7" to="333411021"/>
 <trip depart="1.0" departLane="best" departSpeed="max" from="-30140997" id="rs_c000_i000_9_part0" to="34776006"/>
 <trip depart="2.0" departLane="best" departSpeed="max" from="161182980#0" id="rs_c000_i000_21" to="45409283"/>
 <trip depart="2.0" departLane="best" departSpeed="max" from="-5235996#0" id="rs_c001_i000_2" to="333411021"/>
 <trip depart="3.0" departLane="best" departSpeed="max" from="-10363555" id="rs_c000_i000_28" to="530282943"/>
 <trip depart="4.0" departLane="best" departSpeed="max" from="-26037066" id="rs_c000_i000_49" to="58423646"/>
 <trip depart="4.0" departLane="best" departSpeed="max" from="-333156359#0" id="rs_c000_i000_50" to="5234175"/>
 <trip depart="5.0" departLane="best" departSpeed="max" from="188997019" id="rs_c001_i001_2" to="609759377"/>
 <trip depart="5.0" departLane="best" departSpeed="max" from="115915280#1" id="rs_c000_i000_51_part0" to="307485275"/>
 <trip depart="5.0" departLane="best" departSpeed="max" from="-126709272#1" id="rs_c000_i000_57" to="102332991"/>
 <trip depart="5.0" departLane="best" departSpeed="max" from="116049443#1" id="rs_c000_i000_59" to="26187755#0"/>
 <trip depart="5.0" departLane="best" departSpeed="max" from="-72151001" id="rs_c000_i000_61" to="43302996"/>
 <trip depart="5.0" departLane="best" departSpeed="max" from="-30383562#2" id="rs_c000_i000_64" to="45409283"/>
 <trip depart="6.0" departLane="best" departSpeed="max" from="-8597242#1" id="rs_c000_i000_66" to="102332987#0"/>
 <trip depart="7.0" departLane="best" departSpeed="max" from="5231759" id="rs_c000_i000_81" to="29970080#0"/>
 <trip depart="7.0" departLane="best" departSpeed="max" from="-17108741" id="rs_c000_i000_90_part0" to="10621055"/>
 <trip depart="8.0" departLane="best" departSpeed="max" from="-125351135" id="rs_c001_i000_12" to="26187755#0"/>
 <trip depart="8.0" departLane="best" departSpeed="max" from="-30383562#0" id="rs_c000_i000_106" to="45409283"/>
 <trip depart="8.0" departLane="best" departSpeed="max" from="-8730073" id="rs_c000_i000_94" to="24429370"/>
 <trip depart="10.0" departLane="best" departSpeed="max" from="-30016028#1" id="rs_c000_i000_122" to="26187755#0"/>
 <trip depart="10.0" departLane="best" departSpeed="max" from="-10420635#1" id="rs_c000_i001_10" to="133114633"/>
 <trip depart="11.0" departLane="best" departSpeed="max" from="-709347809" id="rs_c000_i001_11" to="24429370"/>
 <trip depart="12.0" departLane="best" departSpeed="max" from="5067770#1" id="rs_c000_i000_138" to="24662114#0"/>
 <trip depart="12.0" departLane="best" departSpeed="max" from="-95937943#3" id="rs_c000_i000_139" to="26187755#0"/>
 <trip depart="12.0" departLane="best" departSpeed="max" from="-100073149" id="rs_c000_i002_1" to="25561760"/>
 <trip depart="14.0" departLane="best" departSpeed="max" from="257036220#1" id="rs_c001_i000_21" to="161014734"/>
 <trip depart="14.0" departLane="best" departSpeed="max" from="360065223" id="rs_c000_i000_154" to="285128137"/>
 <trip depart="15.0" departLane="best" departSpeed="max" from="-24466641" id="rs_c000_i000_161" to="102332991"/>
 <trip depart="16.0" departLane="best" departSpeed="max" from="353000468#8" id="rs_c000_i001_19" to="29508371#0"/>
 <trip depart="16.0" departLane="best" departSpeed="max" from="4233684" id="rs_c000_i001_20" to="102332991"/>
 <trip depart="17.0" departLane="best" departSpeed="max" from="-167581246" id="rs_c001_i000_28" to="102332987#0"/>
 <trip depart="17.0" departLane="best" departSpeed="max" from="-60952082#0" id="rs_c000_i000_189" to="41882139"/>
 <trip depart="17.0" departLane="best" departSpeed="max" from="60949087" id="rs_c000_i000_199" to="24662114#0"/>
 <trip depart="18.0" departLane="best" departSpeed="max" from="-772686078#0" id="rs_c000_i000_207" to="133114633"/>
 <trip depart="18.0" departLane="best" departSpeed="max" from="26959985" id="rs_c000_i000_209" to="17244796"/>
 <trip depart="18.0" departLane="best" departSpeed="max" from="-324466727" id="rs_c000_i000_213" to="225662323"/>
 <trip depart="18.0" departLane="best" departSpeed="max" from="161735525#0" id="rs_c000_i000_220" to="45409283"/>
 <trip depart="18.0" departLane="best" departSpeed="max" from="20358582#0" id="rs_c000_i000_221" to="45409283"/>
 <trip depart="19.0" departLane="best" departSpeed="max" from="177401371#1" id="rs_c000_i001_24" to="89746911#0"/>
 <trip depart="19.0" departLane="best" departSpeed="max" from="10516147#0" id="rs_c000_i000_224" to="5234175"/>
 <trip depart="19.0" departLane="best" departSpeed="max" from="-94107509" id="rs_c000_i000_228" to="172879174-AddedOffRampEdge"/>
 <trip depart="19.0" departLane="best" departSpeed="max" from="77606148#1" id="rs_c000_i000_231" to="17244796"/>
 <trip depart="20.0" departLane="best" departSpeed="max" from="307014052#1" id="rs_c000_i000_232" to="5235974#2"/>
 <trip depart="20.0" departLane="best" departSpeed="max" from="-5987949#0" id="rs_c000_i000_240" to="29508371#0"/>
 <trip depart="21.0" departLane="best" departSpeed="max" from="-10561827" id="rs_c000_i000_246" to="133109581#0"/>
 <trip depart="21.0" departLane="best" departSpeed="max" from="80323717#1" id="rs_c000_i000_247" to="102332987#0"/>
 <trip depart="21.0" departLane="best" departSpeed="max" from="157703265#0" id="rs_c000_i000_249" to="45409283"/>
 <trip depart="21.0" departLane="best" departSpeed="max" from="125143975" id="rs_c000_i000_253" to="144246396#1"/>
 <trip depart="22.0" departLane="best" departSpeed="max" from="-45578880" id="rs_c000_i000_260" to="39139679"/>
 <trip depart="23.0" departLane="best" departSpeed="max" from="-122529098#1" id="rs_c000_i000_277" to="26187757#1"/>
 <trip depart="24.0" departLane="best" departSpeed="max" from="-101372216" id="rs_c001_i000_40" to="442600425"/>
 <trip depart="24.0" departLane="best" departSpeed="max" from="-117643614#1" id="rs_c000_i001_32" to="117654824#0"/>
 <trip depart="24.0" departLane="best" departSpeed="max" from="-37864054" id="rs_c000_i000_293" to="102332987#0"/>
 <trip depart="25.0" departLane="best" departSpeed="max" from="55364853" id="rs_c000_i000_294" to="-26421407"/>
 <trip depart="25.0" departLane="best" departSpeed="max" from="-367319945#0" id="rs_c000_i000_295" to="530282943"/>
 <trip depart="25.0" departLane="best" departSpeed="max" from="-122529110" id="rs_c000_i000_296" to="26187755#0"/>
 <trip depart="25.0" departLane="best" departSpeed="max" from="-125351135" id="rs_c000_i000_299" to="26187755#0"/>
 <trip depart="26.0" departLane="best" departSpeed="max" from="43263108" id="rs_c001_i000_42" to="-302368831#1"/>
 <trip depart="26.0" departLane="best" departSpeed="max" from="4565194" id="rs_c000_i000_309" to="-85564173"/>
 <trip depart="26.0" departLane="best" departSpeed="max" from="195552850" id="rs_c000_i000_311" to="51667067#0"/>
 <trip depart="27.0" departLane="best" departSpeed="max" from="-74011129#0" id="rs_c000_i001_35" to="25980639"/>
 <trip depart="28.0" departLane="best" departSpeed="max" from="115915280#1" id="rs_c000_i001_36" to="225662323"/>
 <trip depart="28.0" departLane="best" departSpeed="max" from="530282928#1" id="rs_c000_i000_323" to="519395085"/>
 <trip depart="28.0" departLane="best" departSpeed="max" from="-122590749" id="rs_c000_i000_324" to="207295788"/>
 <trip depart="29.0" departLane="best" departSpeed="max" from="-16868678#1" id="rs_c000_i001_38" to="609759377"/>
 <trip depart="30.0" departLane="best" departSpeed="max" from="-24423625#2" id="rs_c000_i000_347" to="207295788"/>
 <trip depart="30.0" departLane="best" departSpeed="max" from="-4685994#1" id="rs_c000_i000_349" to="133109581#0"/>
 <trip depart="31.0" departLane="best" departSpeed="max" from="-285876419#0" id="rs_c000_i000_358" to="30682490"/>
 <trip depart="31.0" departLane="best" departSpeed="max" from="-221166766#0" id="rs_c000_i000_362_part0" to="54200578"/>
 <trip depart="31.0" departLane="best" departSpeed="max" from="34151614" id="rs_c000_i000_364" to="17245257-AddedOffRampEdge"/>
 <trip depart="32.0" departLane="best" departSpeed="max" from="82524563#1" id="rs_c000_i000_369" to="207295788"/>
 <trip depart="32.0" departLane="best" departSpeed="max" from="-129785060" id="rs_c000_i000_376" to="25980639"/>
 <trip depart="33.0" departLane="best" departSpeed="max" from="-332253063#0" id="rs_c001_i000_59" to="35062429#0"/>
 <trip depart="33.0" departLane="best" departSpeed="max" from="61270707" id="rs_c001_i000_60" to="158033990#1"/>
 <trip depart="33.0" departLane="best" departSpeed="max" from="24469322#0" id="rs_c000_i001_44" to="5234175"/>
 <trip depart="33.0" departLane="best" departSpeed="max" from="-76177239" id="rs_c000_i000_377" to="10621055"/>
 <trip depart="33.0" departLane="best" departSpeed="max" from="-142035169#5" id="rs_c000_i000_382" to="45409283"/>
 <trip depart="33.0" departLane="best" departSpeed="max" from="290255300" id="rs_c000_i000_384" to="58423646"/>
 <trip depart="34.0" departLane="best" departSpeed="max" from="309477782#0" id="rs_c001_i000_64" to="131269034"/>
 <trip depart="34.0" departLane="best" departSpeed="max" from="-8135855" id="rs_c001_i000_67" to="-886306666"/>
 <trip depart="34.0" departLane="best" departSpeed="max" from="1080298604" id="rs_c001_i000_68" to="-37933266#0"/>
 <trip depart="34.0" departLane="best" departSpeed="max" from="-5042317#2" id="rs_c000_i001_47" to="132932903"/>
 <trip depart="34.0" departLane="best" departSpeed="max" from="222389339" id="rs_c000_i000_397_part0" to="54200578"/>
 <trip depart="34.0" departLane="best" departSpeed="max" from="-546942445" id="rs_c000_i000_399" to="225662323"/>
 <trip depart="35.0" departLane="best" departSpeed="max" from="108200486" id="rs_c001_i000_71" to="161014734"/>
 <trip depart="35.0" departLane="best" departSpeed="max" from="-4263848" id="rs_c000_i000_402_part0" to="108151818#1"/>
 <trip depart="35.0" departLane="best" departSpeed="max" from="35605874#2" id="rs_c000_i000_411" to="172879174-AddedOffRampEdge"/>
 <trip depart="35.0" departLane="best" departSpeed="max" from="112451183" id="rs_c000_i000_412" to="30682490"/>
 <trip depart="35.0" departLane="best" departSpeed="max" from="-27121494" id="rs_c000_i000_413" to="5095206"/>
 <trip depart="36.0" departLane="best" departSpeed="max" from="-39162601" id="rs_c000_i000_416" to="34760663"/>
 <trip depart="36.0" departLane="best" departSpeed="max" from="117093565" id="rs_c000_i000_420" to="225662323"/>
 <trip depart="36.0" departLane="best" departSpeed="max" from="-125351177#1" id="rs_c000_i000_424" to="26187755#0"/>
 <trip depart="37.0" departLane="best" departSpeed="max" from="-5038086#1" id="rs_c000_i000_430" to="132932903"/>
 <trip depart="38.0" departLane="best" departSpeed="max" from="-4650197#0" id="rs_c000_i000_373" to="132932903"/>
 <trip depart="38.0" departLane="best" departSpeed="max" from="-5067354#1" id="rs_c000_i000_437" to="34760663"/>
 <trip depart="38.0" departLane="best" departSpeed="max" from="-10426053#1" id="rs_c000_i000_444" to="139124541#0"/>
 <trip depart="40.0" departLane="best" departSpeed="max" from="-125143988#1" id="rs_c000_i000_460" to="26187755#0"/>
 <trip depart="41.0" departLane="best" departSpeed="max" from="4229427#1" id="rs_c001_i000_84" to="58768886#0"/>
 <trip depart="41.0" departLane="best" departSpeed="max" from="358438894" id="rs_c000_i000_469" to="29508371#0"/>
 <trip depart="41.0" departLane="best" departSpeed="max" from="147628763#1" id="rs_c000_i000_473" to="102332987#0"/>
 <trip depart="41.0" departLane="best" departSpeed="max" from="10557712" id="rs_c000_i000_475" to="169310108#2"/>
 <trip depart="42.0" departLane="best" departSpeed="max" from="-72728809" id="rs_c001_i000_87" to="-211042302#0"/>
 <trip depart="42.0" departLane="best" departSpeed="max" from="-5041965#0" id="rs_c000_i001_57" to="132932903"/>
 <trip depart="42.0" departLane="best" departSpeed="max" from="-6522799" id="rs_c000_i000_482" to="133114633"/>
 <trip depart="43.0" departLane="best" departSpeed="max" from="-122529102#1" id="rs_c001_i002_1" to="26187755#0"/>
 <trip depart="43.0" departLane="best" departSpeed="max" from="33927935" id="rs_c001_i000_89_part0" to="108151818#1"/>
 <trip depart="43.0" departLane="best" departSpeed="max" from="-10426204#1" id="rs_c001_i000_90_part0" to="35062429#0"/>
 <trip depart="43.0" departLane="best" departSpeed="max" from="5137912" id="rs_c000_i002_6" to="34760663"/>
 <trip depart="43.0" departLane="best" departSpeed="max" from="-42918953" id="rs_c000_i000_486" to="24662114#0"/>
 <trip depart="43.0" departLane="best" departSpeed="max" from="-124536769" id="rs_c000_i000_490" to="133114633"/>
 <trip depart="43.0" departLane="best" departSpeed="max" from="-4261808" id="rs_c000_i000_491" to="16157339"/>
 <trip depart="44.0" departLane="best" departSpeed="max" from="-4952783#2" id="rs_c001_i001_11" to="102332987#0"/>
 <trip depart="45.0" departLane="best" departSpeed="max" from="145737637#0" id="rs_c001_i000_97" to="102332987#0"/>
 <trip depart="45.0" departLane="best" departSpeed="max" from="-4650196" id="rs_c001_i000_98_part0" to="94552561"/>
 <trip depart="45.0" departLane="best" departSpeed="max" from="-24423403#10" id="rs_c000_i000_508" to="144246396#1"/>
 <trip depart="45.0" departLane="best" departSpeed="max" from="-4644472" id="rs_c000_i000_510" to="89746911#0"/>
 <trip depart="46.0" departLane="best" departSpeed="max" from="4439880#1" id="rs_c000_i000_513" to="94552561"/>
 <trip depart="46.0" departLane="best" departSpeed="max" from="74322492#1" id="rs_c001_i000_101" to="158033990#1"/>
 <trip depart="46.0" departLane="best" departSpeed="max" from="266188545" id="rs_c000_i000_521" to="102332987#0"/>
 <trip depart="46.0" departLane="best" departSpeed="max" from="-4872847" id="rs_c000_i000_522" to="30289258"/>
 <trip depart="47.0" departLane="best" departSpeed="max" from="-122529096#6" id="rs_c000_i000_529" to="26187755#0"/>
 <trip depart="47.0" departLane="best" departSpeed="max" from="125351134#0" id="rs_c000_i000_532" to="26187755#0"/>
 <trip depart="47.0" departLane="best" departSpeed="max" from="-136721671" id="rs_c000_i000_533" to="58423646"/>
 <trip depart="48.0" departLane="best" departSpeed="max" from="257036220#1" id="rs_c000_i000_539_part0" to="161014734"/>
 <trip depart="48.0" departLane="best" departSpeed="max" from="-116049439#1" id="rs_c001_i000_104" to="26187757#1"/>
 <trip depart="48.0" departLane="best" departSpeed="max" from="122590744" id="rs_c000_i000_549" to="24662114#0"/>
 <trip depart="48.0" departLane="best" departSpeed="max" from="-84667269" id="rs_c000_i000_552" to="117654824#0"/>
 <trip depart="48.0" departLane="best" departSpeed="max" from="-4261925" id="rs_c001_i000_106_part0" to="131269034"/>
 <trip depart="48.84" departLane="best" departSpeed="max" from="58265961" id="rs_c000_i000_84_part1" to="132932903"/>
 <trip depart="49.0" departLane="best" departSpeed="max" from="46822388" id="rs_c000_i000_553" to="89746911#0"/>
 <trip depart="49.0" departLane="best" departSpeed="max" from="-286243203#1" id="rs_c000_i000_554" to="-112451183"/>
 <trip depart="49.0" departLane="best" departSpeed="max" from="125351114" id="rs_c000_i000_555" to="26187755#0"/>
 <trip depart="50.0" departLane="best" departSpeed="max" from="10560992#0" id="rs_c000_i000_571" to="29508371#0"/>
 <trip depart="50.0" departLane="best" departSpeed="max" from="-192597454" id="rs_c001_i000_107" to="-260898352"/>
 <trip depart="51.0" departLane="best" departSpeed="max" from="695626572" id="rs_c000_i000_578" to="207295788"/>
 <trip depart="51.0" departLane="best" departSpeed="max" from="-137353431" id="rs_c000_i000_580" to="5241393-AddedOffRampEdge"/>
 <trip depart="51.0" departLane="best" departSpeed="max" from="-61997814#0" id="rs_c000_i000_584" to="172879174-AddedOffRampEdge"/>
 <trip depart="52.0" departLane="best" departSpeed="max" from="-75732865" id="rs_c000_i000_593" to="34760663"/>
 <trip depart="52.0" departLane="best" departSpeed="max" from="-30383562#2" id="rs_c000_i000_596" to="45409283"/>
 <trip depart="52.0" departLane="best" departSpeed="max" from="-118869284#1" id="rs_c000_i000_598" to="144246396#1"/>
 <trip depart="52.0" departLane="best" departSpeed="max" from="138630786" id="rs_c001_i000_113" to="35061798"/>
 <trip depart="53.0" departLane="best" departSpeed="max" from="-116049443#1" id="rs_c000_i001_71" to="26187755#0"/>
 <trip depart="53.0" departLane="best" departSpeed="max" from="-188890214" id="rs_c000_i000_610" to="286404309"/>
 <trip depart="53.0" departLane="best" departSpeed="max" from="30326559" id="rs_c000_i000_612" to="34760663"/>
 <trip depart="53.0" departLane="best" departSpeed="max" from="46122296" id="rs_c000_i000_617" to="132932903"/>
 <trip depart="54.0" departLane="best" departSpeed="max" from="-179967083#0" id="rs_c000_i001_75" to="102332987#0"/>
 <trip depart="54.0" departLane="best" departSpeed="max" from="122529104#4" id="rs_c000_i000_635" to="26187755#0"/>
 <trip depart="54.0" departLane="best" departSpeed="max" from="4631284" id="rs_c001_i000_117" to="5234175"/>
 <trip depart="55.0" departLane="best" departSpeed="max" from="-61566225#0" id="rs_c000_i000_653" to="-308586584#0"/>
 <trip depart="56.0" departLane="best" departSpeed="max" from="-83813129#0" id="rs_c000_i001_78" to="609759377"/>
 <trip depart="56.0" departLane="best" departSpeed="max" from="4273624" id="rs_c000_i000_657" to="131269034"/>
 <trip depart="56.0" departLane="best" departSpeed="max" from="285875329#0" id="rs_c000_i000_659" to="132932903"/>
 <trip depart="56.0" departLane="best" departSpeed="max" from="-83813131" id="rs_c001_i000_119" to="158033990#1"/>
 <trip depart="56.0" departLane="best" departSpeed="max" from="188956290" id="rs_c001_i000_122" to="41882139"/>
 <trip depart="57.0" departLane="best" departSpeed="max" from="26369517" id="rs_c000_i001_73" to="442031137#0"/>
 <trip depart="57.0" departLane="best" departSpeed="max" from="61496433" id="rs_c000_i001_79" to="-71308341"/>
 <trip depart="57.0" departLane="best" departSpeed="max" from="-290255303#2" id="rs_c000_i001_81" to="26187757#1"/>
 <trip depart="57.0" departLane="best" departSpeed="max" from="-46596869" id="rs_c000_i000_666" to="45409283"/>
 <trip depart="57.0" departLane="best" departSpeed="max" from="209237468" id="rs_c000_i000_672" to="102332987#0"/>
 <trip depart="57.0" departLane="best" departSpeed="max" from="-84017983" id="rs_c000_i000_678" to="39139679"/>
 <trip depart="57.0" departLane="best" departSpeed="max" from="24031456#4" id="rs_c000_i000_681" to="58423646"/>
 <trip depart="57.0" departLane="best" departSpeed="max" from="-192591522" id="rs_c000_i000_682" to="133114633"/>
 <trip depart="58.0" departLane="best" departSpeed="max" from="-125590811#0" id="rs_c000_i000_131" to="-71308341"/>
 <trip depart="58.0" departLane="best" departSpeed="max" from="155832398#1" id="rs_c000_i000_498" to="44634932#0"/>
 <trip depart="58.0" departLane="best" departSpeed="max" from="-25950167" id="rs_c000_i000_684" to="4683037-AddedOffRampEdge"/>
 <trip depart="58.0" departLane="best" departSpeed="max" from="15242333" id="rs_c000_i000_691" to="225662323"/>
 <trip depart="58.0" departLane="best" departSpeed="max" from="39407805" id="rs_c000_i000_693" to="17244796"/>
 <trip depart="58.0" departLane="best" departSpeed="max" from="82198455" id="rs_c000_i000_694" to="10621055"/>
 <trip depart="60.0" departLane="best" departSpeed="max" from="140493079" id="rs_c001_i000_24" to="51667067#0"/>
 <trip depart="60.0" departLane="best" departSpeed="max" from="-79948185" id="rs_c000_i000_709" to="56701424-AddedOffRampEdge"/>
 <trip depart="60.0" departLane="best" departSpeed="max" from="-15242127#1" id="rs_c000_i000_711" to="-23815250"/>
 <trip depart="61.0" departLane="best" departSpeed="max" from="-235013693#5" id="rs_c000_i000_718" to="24429370"/>
 <trip depart="61.0" departLane="best" departSpeed="max" from="47089824" id="rs_c000_i000_724" to="29970080#0"/>
 <trip depart="61.0" departLane="best" departSpeed="max" from="-100018567" id="rs_c001_i000_132" to="1061462397#2"/>
 <trip depart="61.0" departLane="best" departSpeed="max" from="32278062" id="rs_c001_i000_133" to="5234175"/>
 <trip depart="62.0" departLane="best" departSpeed="max" from="307014052#5" id="rs_c001_i000_136" to="207295788"/>
 <trip depart="63.0" departLane="best" departSpeed="max" from="-188649169" id="rs_c000_i001_90" to="133114633"/>
 <trip depart="64.0" departLane="best" departSpeed="max" from="4264003" id="rs_c000_i000_758" to="-26421407"/>
 <trip depart="65.0" departLane="best" departSpeed="max" from="-4642319#1" id="rs_c000_i000_767" to="89746911#0"/>
 <trip depart="65.0" departLane="best" departSpeed="max" from="-203752765" id="rs_c001_i000_145" to="138914231#0"/>
 <trip depart="65.0" departLane="best" departSpeed="max" from="-8730654" id="rs_c000_i001_92" to="158762159#0"/>
 <trip depart="65.0" departLane="best" departSpeed="max" from="-125351150" id="rs_c000_i001_93" to="26187755#0"/>
 <trip depart="67.0" departLane="best" departSpeed="max" from="-442031137#0" id="rs_c001_i000_58" to="28903697#0"/>
 <trip depart="67.0" departLane="best" departSpeed="max" from="-84017983" id="rs_c000_i001_97" to="35062429#0"/>
 <trip depart="67.0" departLane="best" departSpeed="max" from="-118869284#0" id="rs_c000_i000_782" to="144246396#1"/>
 <trip depart="67.0" departLane="best" departSpeed="max" from="-83488868" id="rs_c001_i000_149" to="41882139"/>
 <trip depart="68.0" departLane="best" departSpeed="max" from="-222389345" id="rs_c000_i000_800" to="225662323"/>
 <trip depart="69.0" departLane="best" departSpeed="max" from="-13615786" id="rs_c000_i001_100" to="442600425"/>
 <trip depart="69.0" departLane="best" departSpeed="max" from="194345826" id="rs_c000_i001_101_part0" to="108151818#1"/>
 <trip depart="69.0" departLane="best" departSpeed="max" from="-157858313#0" id="rs_c000_i000_804" to="45409283"/>
 <trip depart="69.0" departLane="best" departSpeed="max" from="-301875350" id="rs_c000_i000_806" to="207295788"/>
 <trip depart="69.0" departLane="best" departSpeed="max" from="364419352#0" id="rs_c000_i000_810" to="133114633"/>
 <trip depart="70.0" departLane="best" departSpeed="max" from="500848134" id="rs_c000_i000_92" to="609759377"/>
 <trip depart="70.0" departLane="best" departSpeed="max" from="-32016029#2" id="rs_c001_i000_156" to="34760663"/>
 <trip depart="71.0" departLane="best" departSpeed="max" from="352679814" id="rs_c000_i001_103" to="132932903"/>
 <trip depart="71.0" departLane="best" departSpeed="max" from="-209845131" id="rs_c000_i000_818" to="225662323"/>
 <trip depart="72.0" departLane="best" departSpeed="max" from="-14573382#2" id="rs_c000_i000_843" to="35062429#0"/>
 <trip depart="72.0" departLane="best" departSpeed="max" from="-131119719" id="rs_c001_i001_20_part0" to="131269034"/>
 <trip depart="73.0" departLane="best" departSpeed="max" from="-4685774#1" id="rs_c000_i000_848" to="24429370"/>
 <trip depart="73.0" departLane="best" departSpeed="max" from="115915280#0" id="rs_c000_i000_850_part0" to="307485275"/>
 <trip depart="73.0" departLane="best" departSpeed="max" from="333338273" id="rs_c000_i000_856_part0" to="116350100"/>
 <trip depart="73.0" departLane="best" departSpeed="max" from="-10405223#0" id="rs_c001_i000_160" to="530282943"/>
 <trip depart="74.0" departLane="best" departSpeed="max" from="306528028" id="rs_c000_i001_106" to="207295788"/>
 <trip depart="74.0" departLane="best" departSpeed="max" from="-95100609" id="rs_c000_i000_864" to="58423646"/>
 <trip depart="74.0" departLane="best" departSpeed="max" from="24487041" id="rs_c000_i000_865" to="-330920155"/>
 <trip depart="74.0" departLane="best" departSpeed="max" from="-126904280" id="rs_c000_i000_869" to="24662114#0"/>
 <trip depart="74.0" departLane="best" departSpeed="max" from="-4226192#0" id="rs_c001_i000_161" to="27959029#2"/>
 <trip depart="75.0" departLane="best" departSpeed="max" from="-10436546" id="rs_c001_i000_164" to="35062429#0"/>
 <trip depart="76.0" departLane="best" departSpeed="max" from="26040294#1" id="rs_c000_i000_880" to="58423646"/>
 <trip depart="77.0" departLane="best" departSpeed="max" from="347676634" id="rs_c000_i000_892" to="102332987#0"/>
 <trip depart="77.0" departLane="best" departSpeed="max" from="-305549034#1" id="rs_c000_i000_894" to="35262698"/>
 <trip depart="78.0" departLane="best" departSpeed="max" from="8102541" id="rs_c000_i001_113" to="6563442#0"/>
 <trip depart="78.0" departLane="best" departSpeed="max" from="-95938334" id="rs_c000_i000_907" to="89746911#0"/>
 <trip depart="78.0" departLane="best" departSpeed="max" from="-96809683#1" id="rs_c000_i000_912" to="58423646"/>
 <trip depart="78.0" departLane="best" departSpeed="max" from="-6520550" id="rs_c001_i000_169" to="102332987#0"/>
 <trip depart="79.0" departLane="best" departSpeed="max" from="-63322102#1" id="rs_c000_i000_918" to="25980639"/>
 <trip depart="79.0" departLane="best" departSpeed="max" from="51340803#0" id="rs_c000_i000_920" to="139124541#0"/>
 <trip depart="79.0" departLane="best" departSpeed="max" from="78494555" id="rs_c000_i000_921" to="130742908#0"/>
 <trip depart="80.0" departLane="best" departSpeed="max" from="-949174593" id="rs_c000_i000_923" to="45409283"/>
 <trip depart="80.0" departLane="best" departSpeed="max" from="96915239#1" id="rs_c000_i000_928" to="58423646"/>
 <trip depart="80.0" departLane="best" departSpeed="max" from="191545686" id="rs_c001_i000_172" to="205258661"/>
 <trip depart="80.0" departLane="best" departSpeed="max" from="-62419359#0" id="rs_c001_i001_22" to="34760663"/>
 <trip depart="81.0" departLane="best" departSpeed="max" from="58265986#0" id="rs_c000_i000_935_part0" to="128493446"/>
 <trip depart="82.0" departLane="best" departSpeed="max" from="-126906449" id="rs_c000_i001_118" to="130742908#0"/>
 <trip depart="82.0" departLane="best" departSpeed="max" from="52707668" id="rs_c000_i000_939" to="10621055"/>
 <trip depart="82.0" departLane="best" departSpeed="max" from="-367815853#2" id="rs_c000_i000_943" to="102332987#0"/>
 <trip depart="82.0" departLane="best" departSpeed="max" from="-136721672" id="rs_c000_i000_947" to="26187757#1"/>
 <trip depart="83.0" departLane="best" departSpeed="max" from="-178132932" id="rs_c000_i001_119" to="30682490"/>
 <trip depart="83.0" departLane="best" departSpeed="max" from="-10560792" id="rs_c000_i000_949" to="89746911#0"/>
 <trip depart="83.0" departLane="best" departSpeed="max" from="211119157#1" id="rs_c000_i000_959" to="102332987#0"/>
 <trip depart="83.0" departLane="best" departSpeed="max" from="144929459" id="rs_c001_i000_179_part0" to="54200578"/>
 <trip depart="84.0" departLane="best" departSpeed="max" from="-5051707" id="rs_c000_i000_964" to="29508371#0"/>
 <trip depart="84.0" departLane="best" departSpeed="max" from="-62388364" id="rs_c000_i000_965" to="133109576"/>
 <trip depart="85.0" departLane="best" departSpeed="max" from="-188890214" id="rs_c000_i000_971" to="17244796"/>
 <trip depart="85.0" departLane="best" departSpeed="max" from="-46596603#0" id="rs_c000_i000_979_part0" to="-7918124#1"/>
 <trip depart="86.0" departLane="best" departSpeed="max" from="4353778#0" id="rs_c000_i000_982" to="58423646"/>
 <trip depart="86.0" departLane="best" departSpeed="max" from="4644943" id="rs_c000_i000_985" to="29508371#0"/>
 <trip depart="86.0" departLane="best" departSpeed="max" from="-24552576" id="rs_c000_i000_987" to="4683037-AddedOffRampEdge"/>
 <trip depart="86.0" departLane="best" departSpeed="max" from="9702538" id="rs_c001_i000_185" to="609759377"/>
 <trip depart="87.0" departLane="best" departSpeed="max" from="117589024" id="rs_c000_i000_1004" to="25561760"/>
 <trip depart="87.0" departLane="best" departSpeed="max" from="-62162661" id="rs_c001_i000_190" to="10621055"/>
 <trip depart="88.0" departLane="best" departSpeed="max" from="-116645513" id="rs_c000_i000_1006" to="30290213"/>
 <trip depart="88.0" departLane="best" departSpeed="max" from="-95195859#0" id="rs_c000_i000_1013" to="5234175"/>
 <trip depart="88.0" departLane="best" departSpeed="max" from="331546057#3" id="rs_c001_i000_193" to="102332987#0"/>
 <trip depart="89.0" departLane="best" departSpeed="max" from="-118426253" id="rs_c000_i001_130_part0" to="161014734"/>
 <trip depart="89.0" departLane="best" departSpeed="max" from="-301079504#0" id="rs_c000_i000_1018" to="26187755#0"/>
 <trip depart="89.0" departLane="best" departSpeed="max" from="24423403#0" id="rs_c000_i000_1021" to="26187755#0"/>
 <trip depart="89.0" departLane="best" departSpeed="max" from="26369585" id="rs_c001_i000_194" to="-61997814#0"/>
 <trip depart="90.0" departLane="best" departSpeed="max" from="-220370217#0" id="rs_c000_i000_1030" to="333411021"/>
 <trip depart="90.0" departLane="best" departSpeed="max" from="-30618813" id="rs_c000_i000_1032" to="10621055"/>
 <trip depart="90.0" departLane="best" departSpeed="max" from="-4263848" id="rs_c001_i002_3_part0" to="108151818#1"/>
 <trip depart="91.0" departLane="best" departSpeed="max" from="-116920214" id="rs_c000_i000_1034" to="285128137"/>
 <trip depart="91.0" departLane="best" departSpeed="max" from="183247520" id="rs_c000_i001_131" to="35062429#0"/>
 <trip depart="91.0" departLane="best" departSpeed="max" from="-85562446#0" id="rs_c001_i000_197" to="39139679"/>
 <trip depart="92.0" departLane="best" departSpeed="max" from="125351263" id="rs_c000_i000_1059_part0" to="5241393-AddedOffRampEdge"/>
 <trip depart="92.0" departLane="best" departSpeed="max" from="-26127182#1" id="rs_c000_i000_1060" to="26187755#0"/>
 <trip depart="93.0" departLane="best" departSpeed="max" from="24423403#5" id="rs_c000_i000_1064" to="144246396#1"/>
 <trip depart="93.0" departLane="best" departSpeed="max" from="-28554443" id="rs_c000_i000_1067" to="30290213"/>
 <trip depart="94.0" departLane="best" departSpeed="max" from="939526275#2" id="rs_c000_i000_1072" to="35262698"/>