<?xml version="1.0" encoding="utf-8"?>
<routes>
 <trip depart="1.0" departLane="best" departSpeed="max" from="321098632#1" id="rs_c001_i000_0" to="-4261815"/>
 <trip depart="1.0" departLane="best" departSpeed="max" from="-231402126#0" id="rs_c001_i001_0" to="89746911#0"/>
 <trip depart="1.0" departLane="best" departSpeed="max" from="222389339" id="rs_c001_i000_1" to="225662323"/>
 <trip depart="1.0" departLane="best" departSpeed="max" from="79122894" id="rs_c000_i001_0" to="102332987#0"/>
 <trip depart="2.0" departLane="best" departSpeed="max" from="161182980#0" id="rs_c000_i000_21" to="45409283"/>
 <trip depart="3.0" departLane="best" departSpeed="max" from="-10363555" id="rs_c000_i000_28" to="530282943"/>
 <trip depart="3.0" departLane="best" departSpeed="max" from="5079389" id="rs_c001_i000_5" to="130742908#0"/>
 <trip depart="4.0" departLane="best" departSpeed="max" from="191199323" id="rs_c000_i000_42" to="172879174-AddedOffRampEdge"/>
 <trip depart="4.0" departLane="best" departSpeed="max" from="-38807023" id="rs_c000_i000_48" to="-85564173"/>
 <trip depart="4.0" departLane="best" departSpeed="max" from="-26037066" id="rs_c000_i000_49" to="58423646"/>
 <trip depart="5.0" departLane="best" departSpeed="max" from="188997019" id="rs_c001_i001_2" to="609759377"/>
 <trip depart="5.0" departLane="best" departSpeed="max" from="-48215535#0" id="rs_c000_i001_5" to="25980639"/>
 <trip depart="5.0" departLane="best" departSpeed="max" from="115915280#1" id="rs_c000_i000_51_part0" to="307485275"/>
 <trip depart="5.0" departLane="best" departSpeed="max" from="116049443#1" id="rs_c000_i000_59" to="26187755#0"/>
 <trip depart="5.0" departLane="best" departSpeed="max" from="-72151001" id="rs_c000_i000_61" to="43302996"/>
 <trip depart="5.0" departLane="best" departSpeed="max" from="-30383562#2" id="rs_c000_i000_64" to="45409283"/>
 <trip depart="6.0" departLane="best" departSpeed="max" from="-8597242#1" id="rs_c000_i000_66" to="102332987#0"/>
 <trip depart="6.0" departLane="best" departSpeed="max" from="96596615#1" id="rs_c000_i000_72" to="41882139"/>
 <trip depart="6.0" departLane="best" departSpeed="max" from="-37296677" id="rs_c000_i000_73" to="609759377"/>
 <trip depart="7.0" departLane="best" departSpeed="max" from="5231759" id="rs_c000_i000_81" to="29970080#0"/>
 <trip depart="7.0" departLane="best" departSpeed="max" from="-348125904" id="rs_c001_i000_11_part0" to="102332987#0"/>
 <trip depart="8.0" departLane="best" departSpeed="max" from="-22957237" id="rs_c000_i000_104" to="207295788"/>
 <trip depart="8.0" departLane="best" departSpeed="max" from="-30383562#0" id="rs_c000_i000_106" to="45409283"/>
 <trip depart="8.0" departLane="best" departSpeed="max" from="-8730073" id="rs_c000_i000_94" to="24429370"/>
 <trip depart="8.0" departLane="best" departSpeed="max" from="260427037#2" id="rs_c000_i000_95" to="158033990#1"/>
 <trip depart="9.0" departLane="best" departSpeed="max" from="-169310108#2" id="rs_c000_i000_53" to="133109576"/>
 <trip depart="12.0" departLane="best" departSpeed="max" from="-217548735" id="rs_c000_i000_137" to="34760663"/>
 <trip depart="12.0" departLane="best" departSpeed="max" from="5067770#1" id="rs_c000_i000_138" to="24662114#0"/>
 <trip depart="14.0" departLane="best" departSpeed="max" from="257036220#1" id="rs_c001_i000_21" to="161014734"/>
 <trip depart="14.0" departLane="best" departSpeed="max" from="360065223" id="rs_c000_i000_154" to="285128137"/>
 <trip depart="14.0" departLane="best" departSpeed="max" from="125828734" id="rs_c000_i001_15" to="17244796"/>
 <trip depart="15.0" departLane="best" departSpeed="max" from="-9640576" id="rs_c000_i000_160" to="333411021"/>
 <trip depart="15.0" departLane="best" departSpeed="max" from="-24466641" id="rs_c000_i000_161" to="102332991"/>
 <trip depart="16.0" departLane="best" departSpeed="max" from="-4233519" id="rs_c001_i000_25" to="139435818#0"/>
 <trip depart="16.0" departLane="best" departSpeed="max" from="4233684" id="rs_c000_i001_20" to="102332991"/>
 <trip depart="17.0" departLane="best" departSpeed="max" from="-167581246" id="rs_c001_i000_28" to="102332987#0"/>
 <trip depart="17.0" departLane="best" departSpeed="max" from="-137996247" id="rs_c000_i000_194" to="58423646"/>
 <trip depart="17.0" departLane="best" departSpeed="max" from="60949087" id="rs_c000_i000_199" to="24662114#0"/>
 <trip depart="17.0" departLane="best" departSpeed="max" from="35722785#1" id="rs_c000_i000_202" to="285137509"/>
 <trip depart="18.0" departLane="best" departSpeed="max" from="-772686078#0" id="rs_c000_i000_207" to="133114633"/>
 <trip depart="18.0" departLane="best" departSpeed="max" from="26959985" id="rs_c000_i000_209" to="17244796"/>
 <trip depart="18.0" departLane="best" departSpeed="max" from="-324466727" id="rs_c000_i000_213" to="225662323"/>
 <trip depart="18.0" departLane="best" departSpeed="max" from="-76177237" id="rs_c000_i000_219" to="24662114#0"/>
 <trip depart="18.0" departLane="best" departSpeed="max" from="161735525#0" id="rs_c000_i000_220" to="45409283"/>
 <trip depart="19.0" departLane="best" departSpeed="max" from="10516147#0" id="rs_c000_i000_224" to="5234175"/>
 <trip depart="19.0" departLane="best" departSpeed="max" from="-94107509" id="rs_c000_i000_228" to="172879174-AddedOffRampEdge"/>
 <trip depart="19.0" departLane="best" departSpeed="max" from="77606148#1" id="rs_c000_i000_231" to="17244796"/>
 <trip depart="20.0" departLane="best" departSpeed="max" from="307014052#1" id="rs_c000_i000_232" to="5235974#2"/>
 <trip depart="21.0" departLane="best" departSpeed="max" from="-10426053#1" id="rs_c001_i000_35" to="35062429#0"/>
 <trip depart="21.0" departLane="best" departSpeed="max" from="80323717#1" id="rs_c000_i000_247" to="102332987#0"/>
 <trip depart="21.0" departLane="best" departSpeed="max" from="157703265#0" id="rs_c000_i000_249" to="45409283"/>
 <trip depart="23.0" departLane="best" departSpeed="max" from="-122529098#1" id="rs_c000_i000_277" to="26187757#1"/>
 <trip depart="25.0" departLane="best" departSpeed="max" from="56253839" id="rs_c000_i000_303" to="25980639"/>
 <trip depart="26.0" departLane="best" departSpeed="max" from="4565194" id="rs_c000_i000_309" to="-85564173"/>
 <trip depart="26.0" departLane="best" departSpeed="max" from="195552850" id="rs_c000_i000_311" to="51667067#0"/>
 <trip depart="27.0" departLane="best" departSpeed="max" from="-74011129#0" id="rs_c000_i001_35" to="25980639"/>
 <trip depart="28.0" departLane="best" departSpeed="max" from="96202732" id="rs_c001_i000_46" to="55260909#0"/>
 <trip depart="28.0" departLane="best" departSpeed="max" from="78060839#0" id="rs_c001_i000_47" to="45409283"/>
 <trip depart="28.0" departLane="best" departSpeed="max" from="530282928#1" id="rs_c000_i000_323" to="519395085"/>
 <trip depart="28.0" departLane="best" departSpeed="max" from="235008345" id="rs_c000_i000_327" to="29508371#0"/>
 <trip depart="28.0" departLane="best" departSpeed="max" from="125351134#1" id="rs_c000_i000_329" to="24429370"/>
 <trip depart="29.0" departLane="best" departSpeed="max" from="-44149187" id="rs_c000_i000_326" to="24429370"/>
 <trip depart="29.0" departLane="best" departSpeed="max" from="4246321" id="rs_c001_i000_49" to="530282943"/>
 <trip depart="30.0" departLane="best" departSpeed="max" from="-324547492" id="rs_c001_i000_51" to="34760663"/>
 <trip depart="33.0" departLane="best" departSpeed="max" from="-285133710" id="rs_c001_i000_57" to="16157339"/>
 <trip depart="33.0" departLane="best" departSpeed="max" from="-139241837" id="rs_c000_i000_378" to="24429370"/>
 <trip depart="33.0" departLane="best" departSpeed="max" from="290255300" id="rs_c000_i000_384" to="58423646"/>
 <trip depart="34.0" departLane="best" departSpeed="max" from="309477782#0" id="rs_c001_i000_64" to="131269034"/>
 <trip depart="34.0" departLane="best" departSpeed="max" from="-8135855" id="rs_c001_i000_67" to="-886306666"/>
 <trip depart="34.0" departLane="best" departSpeed="max" from="1080298604" id="rs_c001_i000_68" to="-37933266#0"/>
 <trip depart="34.0" departLane="best" departSpeed="max" from="222389339" id="rs_c000_i000_397_part0" to="54200578"/>
 <trip depart="35.0" departLane="best" departSpeed="max" from="-4263848" id="rs_c000_i000_402_part0" to="108151818#1"/>
 <trip depart="35.0" departLane="best" departSpeed="max" from="35605874#2" id="rs_c000_i000_411" to="172879174-AddedOffRampEdge"/>
 <trip depart="36.0" departLane="best" departSpeed="max" from="60949087" id="rs_c000_i000_415" to="158033990#1"/>
 <trip depart="36.0" departLane="best" departSpeed="max" from="-125351177#1" id="rs_c000_i000_424" to="26187755#0"/>
 <trip depart="37.0" departLane="best" departSpeed="max" from="-5038086#1" id="rs_c000_i000_430" to="132932903"/>
 <trip depart="38.0" departLane="best" departSpeed="max" from="-4650197#0" id="rs_c000_i000_373" to="132932903"/>
 <trip depart="38.0" departLane="best" departSpeed="max" from="-10426053#1" id="rs_c000_i000_444" to="139124541#0"/>
 <trip depart="39.0" departLane="best" departSpeed="max" from="4691940" id="rs_c000_i001_55" to="30289258"/>
 <trip depart="40.0" departLane="best" departSpeed="max" from="139217740" id="rs_c001_i000_83" to="674486879#3"/>
 <trip depart="40.0" departLane="best" departSpeed="max" from="-125143988#1" id="rs_c000_i000_460" to="26187755#0"/>
 <trip depart="41.0" departLane="best" departSpeed="max" from="155832398#1" id="rs_c000_i000_198" to="44634932#0"/>
 <trip depart="41.0" departLane="best" departSpeed="max" from="10557712" id="rs_c000_i000_475" to="169310108#2"/>
 <trip depart="42.0" departLane="best" departSpeed="max" from="-5041965#0" id="rs_c000_i001_57" to="132932903"/>
 <trip depart="42.0" departLane="best" departSpeed="max" from="-6522799" id="rs_c000_i000_482" to="133114633"/>
 <trip depart="43.0" departLane="best" departSpeed="max" from="-122529102#1" id="rs_c001_i002_1" to="26187755#0"/>
 <trip depart="43.0" departLane="best" departSpeed="max" from="-10426204#1" id="rs_c001_i000_90_part0" to="35062429#0"/>
 <trip depart="43.0" departLane="best" departSpeed="max" from="-138517983" id="rs_c000_i000_494" to="609759377"/>
 <trip depart="44.0" departLane="best" departSpeed="max" from="-76177239" id="rs_c001_i000_86" to="41882139"/>
 <trip depart="47.0" departLane="best" departSpeed="max" from="-122529096#6" id="rs_c000_i000_529" to="26187755#0"/>
 <trip depart="47.0" departLane="best" departSpeed="max" from="703967713" id="rs_c001_i000_103" to="5085841"/>
 <trip depart="47.0" departLane="best" departSpeed="max" from="-10560982" id="rs_c000_i001_63" to="89746911#0"/>
 <trip depart="48.0" departLane="best" departSpeed="max" from="-84667269" id="rs_c000_i000_552" to="117654824#0"/>
 <trip depart="48.84" departLane="best" departSpeed="max" from="58265961" id="rs_c000_i000_84_part1" to="132932903"/>
 <trip depart="49.0" departLane="best" departSpeed="max" from="46822388" id="rs_c000_i000_553" to="89746911#0"/>
 <trip depart="49.0" departLane="best" departSpeed="max" from="125351114" id="rs_c000_i000_555" to="26187755#0"/>
 <trip depart="49.0" departLane="best" departSpeed="max" from="20359648#3" id="rs_c000_i000_556" to="45409283"/>
 <trip depart="49.0" departLane="best" departSpeed="max" from="141783126#0" id="rs_c000_i000_564" to="133114633"/>
 <trip depart="51.0" departLane="best" departSpeed="max" from="695626572" id="rs_c000_i000_578" to="207295788"/>
 <trip depart="51.0" departLane="best" departSpeed="max" from="-61997814#0" id="rs_c000_i000_584" to="172879174-AddedOffRampEdge"/>
 <trip depart="51.0" departLane="best" departSpeed="max" from="82284036#1" id="rs_c000_i000_586" to="102282710"/>
 <trip depart="52.0" departLane="best" departSpeed="max" from="-212706393" id="rs_c000_i000_589" to="45409283"/>
 <trip depart="52.0" departLane="best" departSpeed="max" from="-4685774#0" id="rs_c000_i000_591" to="44149181"/>
 <trip depart="52.0" departLane="best" departSpeed="max" from="-75732865" id="rs_c000_i000_593" to="34760663"/>
 <trip depart="52.0" departLane="best" departSpeed="max" from="-118869284#1" id="rs_c000_i000_598" to="144246396#1"/>
 <trip depart="52.0" departLane="best" departSpeed="max" from="4229437" id="rs_c000_i000_605" to="207295788"/>
 <trip depart="53.0" departLane="best" departSpeed="max" from="30326559" id="rs_c000_i000_612" to="34760663"/>
 <trip depart="53.0" departLane="best" departSpeed="max" from="46122296" id="rs_c000_i000_617" to="132932903"/>
 <trip depart="54.0" departLane="best" departSpeed="max" from="307014052#3" id="rs_c000_i001_72" to="51667067#0"/>
 <trip depart="54.0" departLane="best" departSpeed="max" from="-179967083#0" id="rs_c000_i001_75" to="102332987#0"/>
 <trip depart="54.0" departLane="best" departSpeed="max" from="122529104#4" id="rs_c000_i000_635" to="26187755#0"/>
 <trip depart="55.0" departLane="best" departSpeed="max" from="20358582#0" id="rs_c000_i000_646_part0" to="45409283"/>
 <trip depart="56.0" departLane="best" departSpeed="max" from="-221166765" id="rs_c000_i000_359_part0" to="30472294#0"/>
 <trip depart="56.0" departLane="best" departSpeed="max" from="-83813131" id="rs_c001_i000_119" to="158033990#1"/>
 <trip depart="56.0" departLane="best" departSpeed="max" from="188956290" id="rs_c001_i000_122" to="41882139"/>
 <trip depart="57.0" departLane="best" departSpeed="max" from="26369517" id="rs_c000_i001_73" to="442031137#0"/>
 <trip depart="57.0" departLane="best" departSpeed="max" from="-290255303#2" id="rs_c000_i001_81" to="26187757#1"/>
 <trip depart="57.0" departLane="best" departSpeed="max" from="462046218" id="rs_c000_i000_673" to="38455846"/>
 <trip depart="57.0" departLane="best" departSpeed="max" from="33927934" id="rs_c000_i000_677_part0" to="307485275"/>
 <trip depart="57.0" departLane="best" departSpeed="max" from="-192591522" id="rs_c000_i000_682" to="133114633"/>
 <trip depart="58.0" departLane="best" departSpeed="max" from="-125590811#0" id="rs_c000_i000_131" to="-71308341"/>
 <trip depart="58.0" departLane="best" departSpeed="max" from="-25950167" id="rs_c000_i000_684" to="4683037-AddedOffRampEdge"/>
 <trip depart="58.0" departLane="best" departSpeed="max" from="15242333" id="rs_c000_i000_691" to="225662323"/>
 <trip depart="59.0" departLane="best" departSpeed="max" from="-265764200" id="rs_c001_i000_128" to="225662323"/>
 <trip depart="60.0" departLane="best" departSpeed="max" from="-79948185" id="rs_c000_i000_709" to="56701424-AddedOffRampEdge"/>
 <trip depart="60.0" departLane="best" departSpeed="max" from="8597240" id="rs_c001_i001_17" to="60911974"/>
 <trip depart="61.0" departLane="best" departSpeed="max" from="-212690606" id="rs_c000_i001_86" to="5234175"/>
 <trip depart="61.0" departLane="best" departSpeed="max" from="-235013693#5" id="rs_c000_i000_718" to="24429370"/>
 <trip depart="61.0" departLane="best" departSpeed="max" from="5047446#1" id="rs_c000_i000_720" to="30289399"/>
 <trip depart="61.0" departLane="best" departSpeed="max" from="47089824" id="rs_c000_i000_724" to="29970080#0"/>
 <trip depart="63.0" departLane="best" departSpeed="max" from="61669586" id="rs_c000_i002_10" to="5234175"/>
 <trip depart="64.0" departLane="best" departSpeed="max" from="4264003" id="rs_c000_i000_758" to="-26421407"/>
 <trip depart="67.0" departLane="best" departSpeed="max" from="-442031137#0" id="rs_c001_i000_58" to="28903697#0"/>
 <trip depart="68.0" departLane="best" departSpeed="max" from="22999027#3" id="rs_c000_i000_793" to="24429370"/>
 <trip depart="69.0" departLane="best" departSpeed="max" from="-13615786" id="rs_c000_i001_100" to="442600425"/>
 <trip depart="69.0" departLane="best" departSpeed="max" from="194345826" id="rs_c000_i001_101_part0" to="108151818#1"/>
 <trip depart="69.0" departLane="best" departSpeed="max" from="-79850590" id="rs_c000_i000_801" to="10621055"/>
 <trip depart="69.0" departLane="best" departSpeed="max" from="-157858313#0" id="rs_c000_i000_804" to="45409283"/>
 <trip depart="70.0" departLane="best" departSpeed="max" from="500848134" id="rs_c000_i000_92" to="609759377"/>
 <trip depart="70.0" departLane="best" departSpeed="max" from="-4952724" id="rs_c000_i000_815" to="45409283"/>
 <trip depart="70.0" departLane="best" departSpeed="max" from="-32016029#2" id="rs_c001_i000_156" to="34760663"/>
 <trip depart="71.0" departLane="best" departSpeed="max" from="352679814" id="rs_c000_i001_103" to="132932903"/>
 <trip depart="72.0" departLane="best" departSpeed="max" from="-14573382#2" id="rs_c000_i000_843" to="35062429#0"/>
 <trip depart="73.0" departLane="best" departSpeed="max" from="71284390#0" id="rs_c000_i001_104" to="172879174-AddedOffRampEdge"/>
 <trip depart="73.0" departLane="best" departSpeed="max" from="-10516147#2" id="rs_c000_i001_105" to="-5235818"/>
 <trip depart="73.0" departLane="best" departSpeed="max" from="115915280#0" id="rs_c000_i000_850_part0" to="307485275"/>
 <trip depart="74.0" departLane="best" departSpeed="max" from="4341468#1" id="rs_c000_i000_861" to="30289399"/>
 <trip depart="74.0" departLane="best" departSpeed="max" from="-95100609" id="rs_c000_i000_864" to="58423646"/>
 <trip depart="74.0" departLane="best" departSpeed="max" from="24487041" id="rs_c000_i000_865" to="-330920155"/>
 <trip depart="74.0" departLane="best" departSpeed="max" from="-126904280" id="rs_c000_i000_869" to="24662114#0"/>
 <trip depart="75.0" departLane="best" departSpeed="max" from="-328253309#0" id="rs_c000_i001_110" to="-441119941"/>
 <trip depart="75.0" departLane="best" departSpeed="max" from="-10436546" id="rs_c001_i000_164" to="35062429#0"/>
 <trip depart="76.0" departLane="best" departSpeed="max" from="-10425858" id="rs_c000_i000_882" to="139124541#0"/>
 <trip depart="76.0" departLane="best" departSpeed="max" from="-8730073" id="rs_c000_i000_884" to="29508371#0"/>
 <trip depart="76.0" departLane="best" departSpeed="max" from="20179292#0" id="rs_c001_i000_168" to="237496662"/>
 <trip depart="77.0" departLane="best" departSpeed="max" from="-305549034#1" id="rs_c000_i000_894" to="35262698"/>
 <trip depart="77.0" departLane="best" departSpeed="max" from="22999027#0" id="rs_c000_i002_16" to="50433683"/>
 <trip depart="78.0" departLane="best" departSpeed="max" from="-211120149" id="rs_c000_i001_114" to="35062429#0"/>
 <trip depart="80.0" departLane="best" departSpeed="max" from="-949174593" id="rs_c000_i000_923" to="45409283"/>
 <trip depart="80.0" departLane="best" departSpeed="max" from="96915239#1" id="rs_c000_i000_928" to="58423646"/>
 <trip depart="80.0" departLane="best" departSpeed="max" from="-329359058" id="rs_c000_i000_929" to="333411021"/>
 <trip depart="82.0" departLane="best" departSpeed="max" from="-5234278#1" id="rs_c000_i000_940" to="427173722"/>
 <trip depart="82.0" departLane="best" departSpeed="max" from="-367815853#2" id="rs_c000_i000_943" to="102332987#0"/>
 <trip depart="83.0" departLane="best" departSpeed="max" from="-295416118#1" id="rs_c000_i000_960" to="133114633"/>
 <trip depart="83.0" departLane="best" departSpeed="max" from="144929459" id="rs_c001_i000_179_part0" to="54200578"/>
 <trip depart="84.0" departLane="best" departSpeed="max" from="-117654815#3" id="rs_c000_i001_120" to="25980639"/>
 <trip depart="84.0" departLane="best" departSpeed="max" from="-23197959" id="rs_c000_i000_966_part0" to="116350100"/>
 <trip depart="85.0" departLane="best" departSpeed="max" from="-46596603#0" id="rs_c000_i000_979_part0" to="-7918124#1"/>
 <trip depart="86.0" departLane="best" departSpeed="max" from="4353778#0" id="rs_c000_i000_982" to="58423646"/>
 <trip depart="86.0" departLane="best" departSpeed="max" from="-330910121" id="rs_c000_i000_989" to="17244796"/>
 <trip depart="86.0" departLane="best" departSpeed="max" from="-62064349" id="rs_c001_i000_187" to="1061462397#2"/>
 <trip depart="88.0" departLane="best" departSpeed="max" from="-74314173" id="rs_c001_i000_75" to="51667067#0"/>
 <trip depart="88.0" departLane="best" departSpeed="max" from="331546057#3" id="rs_c001_i000_193" to="102332987#0"/>
 <trip depart="89.0" departLane="best" departSpeed="max" from="-24429416" id="rs_c000_i000_1016" to="133109576"/>
 <trip depart="89.0" departLane="best" departSpeed="max" from="358697049#1" id="rs_c000_i000_1020" to="133114633"/>
 <trip depart="89.0" departLane="best" departSpeed="max" from="24423403#0" id="rs_c000_i000_1021" to="26187755#0"/>
 <trip depart="89.0" departLane="best" departSpeed="max" from="26369585" id="rs_c001_i000_194" to="-61997814#0"/>
 <trip depart="90.0" departLane="best" departSpeed="max" from="51340803#0" id="rs_c001_i000_189" to="35062429#0"/>
 <trip depart="90.0" departLane="best" departSpeed="max" from="-30618813" id="rs_c000_i000_1032" to="10621055"/>
 <trip depart="90.0" departLane="best" departSpeed="max" from="-4263848" id="rs_c001_i002_3_part0" to="108151818#1"/>
 <trip depart="91.0" departLane="best" departSpeed="max" from="-8423754" id="rs_c000_i000_991" to="35262698"/>
 <trip depart="91.0" departLane="best" departSpeed="max" from="-116920214" id="rs_c000_i000_1034" to="285128137"/>
 <trip depart="91.0" departLane="best" departSpeed="max" from="183247520" id="rs_c000_i001_131" to="35062429#0"/>
 <trip depart="91.0" departLane="best" departSpeed="max" from="-85562446#0" id="rs_c001_i000_197" to="39139679"/>
 <trip depart="92.0" departLane="best" departSpeed="max" from="333144376" id="rs_c000_i000_1052" to="333411021"/>
 <trip depart="92.0" departLane="best" departSpeed="max" from="107287649#0" id="rs_c000_i001_132" to="519395085"/>
 <trip depart="93.0" departLane="best" departSpeed="max" from="-28554443" id="rs_c000_i000_1067" to="30290213"/>
 <trip depart="93.0" departLane="best" departSpeed="max" from="-23253675" id="rs_c000_i000_1068" to="56701424-AddedOffRampEdge"/>
 <trip depart="93.0" departLane="best" departSpeed="max" from="129827593#1" id="rs_c000_i000_1069_part0" to="161014734"/>
 <trip depart="93.0" departLane="best" departSpeed="max" from="4643592" id="rs_c000_i001_133" to="17244796"/>
 <trip depart="94.0" departLane="best" departSpeed="max" from="-7715353#0" id="rs_c000_i001_136" to="24429370"/>
 <trip depart="96.0" departLane="best" departSpeed="max" from="15242129#1" id="rs_c000_i000_1095" to="38455846"/>
 <trip depart="96.0" departLane="best" departSpeed="max" from="939526275#1" id="rs_c000_i000_1098" to="35262698"/>
 <trip depart="96.0" departLane="best" departSpeed="max" from="285572406#1" id="rs_c000_i000_1099" to="58265986#0"/>
 <trip depart="96.0" departLane="best" departSpeed="max" from="-367815853#0" id="rs_c001_i000_204" to="133114633"/>
 <trip depart="97.0" departLane="best" departSpeed="max" from="-28213037" id="rs_c000_i000_1108_part0" to="54200578"/>
 <trip depart="97.0" departLane="best" departSpeed="max" from="-10561499" id="rs_c000_i000_1109" to="5234175"/>
 <trip depart="97.0" departLane="best" departSpeed="max" from="-24423403#7" id="rs_c000_i000_1112" to="144246396#1"/>
 <trip depart="97.0" departLane="best" departSpeed="max" from="-4468815#1" id="rs_c001_i000_210" to="61367454#1"/>
 <trip depart="98.0" departLane="best" departSpeed="max" from="-74322476#0" id="rs_c000_i000_1133" to="10621055"/>
 <trip depart="98.0" departLane="best" departSpeed="max" from="364419352#0" id="rs_c000_i001_141" to="102332987#0"/>
 <trip depart="99.0" departLane="best" departSpeed="max" from="53522499#2" id="rs_c000_i000_1134" to="45409283"/>
 <trip depart="99.0" departLane="best" departSpeed="max" from="211332272#0" id="rs_c000_i001_144" to="133114633"/>
 <trip depart="100.0" departLane="best" departSpeed="max" from="84017451#0" id="rs_c000_i000_1143" to="-330920155"/>
 <trip depart="100.0" departLane="best" departSpeed="max" from="-25615043#2" id="rs_c000_i000_1150" to="26187755#0"/>
 <trip depart="101.0" departLane="best" departSpeed="max" from="-266161713#0" id="rs_c000_i000_1156" to="102332987#0"/>
 <trip depart="101.0" departLane="best" departSpeed="max" from="-26698200" id="rs_c001_i000_214" to="41882139"/>
 <trip depart="102.0" departLane="best" departSpeed="max" from="-364021792" id="rs_c001_i000_220" to="102332987#0"/>
 <trip depart="103.0" departLane="best" departSpeed="max" from="-122529100" id="rs_c000_i000_1177" to="26187755#0"/>
 <trip depart="103.0" departLane="best" departSpeed="max" from="358697049#0" id="rs_c000_i000_1186" to="133114633"/>
 <trip depart="103.0" departLane="best" departSpeed="max" from="73849826" id="rs_c000_i000_1187" to="51667067#0"/>
 <trip depart="103.0" departLane="best" departSpeed="max" from="195720443" id="rs_c001_i000_222_part0" to="41882139"/>
 <trip depart="104.0" departLane="best" departSpeed="max" from="-119051530" id="rs_c000_i000_1191" to="5241393-AddedOffRampEdge"/>
 <trip depart="105.0" departLane="best" departSpeed="max" from="24937052#0" id="rs_c000_i001_155" to="-117058060#0"/>
 <trip depart="106.0" departLane="best" departSpeed="max" from="-94087966" id="rs_c000_i001_157" to="5137912"/>
 <trip depart="107.0" departLane="best" departSpeed="max" from="-286404309" id="rs_c000_i000_1211" to="58423646"/>
 <trip depart="107.0" departLane="best" departSpeed="max" from="-324466728" id="rs_c001_i000_226" to="30682490"/>
 <trip depart="109.0" departLane="best" departSpeed="max" from="-81146813" id="rs_c000_i000_1232" to="131269034"/>
 <trip depart="109.0" departLane="best" departSpeed="max" from="-61270486" id="rs_c000_i001_162" to="158033990#1"/>
 <trip depart="110.0" departLane="best" departSpeed="max" from="29307942" id="rs_c000_i000_1246" to="24429370"/>
 <trip depart="111.0" departLane="best" departSpeed="max" from="-265232859#0" id="rs_c000_i000_1238" to="89746911#0"/>
 <trip depart="111.0" departLane="best" departSpeed="max" from="-42902346#1" id="rs_c000_i000_1260" to="133109576"/>
 <trip depart="111.0" departLane="best" departSpeed="max" from="503180223#1" id="rs_c000_i002_25" to="58422327"/>
 <trip depart="112.0" departLane="best" departSpeed="max" from="-4263976#0" id="rs_c001_i000_235_part0" to="108151818#1"/>
 <trip depart="113.0" departLane="best" departSpeed="max" from="-10560448#0" id="rs_c000_i000_1272" to="29508371#0"/>
 <trip depart="113.0" departLane="best" departSpeed="max" from="-5921785#1" id="rs_c000_i000_1276" to="24429370"/>
 <trip depart="113.0" departLane="best" departSpeed="max" from="105208820#2" id="rs_c000_i000_1281" to="225662323"/>
 <trip depart="113.0" departLane="best" departSpeed="max" from="-122590749" id="rs_c000_i002_26" to="25980639"/>
 <trip depart="114.0" departLane="best" departSpeed="max" from="-108323051" id="rs_c000_i000_1288" to="225662323"/>
 <trip depart="114.0" departLane="best" departSpeed="max" from="-5074209" id="rs_c000_i000_1290" to="10621055"/>
 <trip depart="114.0" departLane="best" departSpeed="max" from="5036491" id="rs_c000_i001_173" to="132932903"/>
 <trip depart="114.0" departLane="best" departSpeed="max" from="-10420716" id="rs_c001_i001_29" to="102332987#0"/>
 <trip depart="118.0" departLane="best" departSpeed="max" from="-285876419#0" id="rs_c000_i000_1334" to="30682490"/>
 <trip depart="119.0" departLane="best" departSpeed="max" from="-46606162" id="rs_c000_i000_1350" to="45409283"/>
 <trip depart="120.0" departLane="best" departSpeed="max" from="125684101#0" id="rs_c000_i001_171" to="530282943"/>
 <trip depart="121.0" departLane="best" departSpeed="max" from="333156359#5" id="rs_c000_i000_1374" to="-5235818"/>
 <trip depart="122.0" departLane="best" departSpeed="max" from="-79474991" id="rs_c000_i000_1386" to="10621055"/>
 <trip depart="122.0" departLane="best" departSpeed="max" from="-4644941#4" id="rs_c000_i000_1390" to="29508371#0"/>
 <trip depart="122.0" departLane="best" departSpeed="max" from="-32969734" id="rs_c000_i001_185" to="26187755#0"/>
 <trip depart="123.0" departLane="best" departSpeed="max" from="-4260589" id="rs_c000_i000_1394" to="225662323"/>
 <trip depart="123.0" departLane="best" departSpeed="max" from="-44950152" id="rs_c000_i000_1397" to="45409283"/>
 <trip depart="123.0" departLane="best" departSpeed="max" from="-192591535#1" id="rs_c001_i000_250" to="102332987#0"/>
 <trip depart="123.0" departLane="best" departSpeed="max" from="126449231#0" id="rs_c001_i000_252" to="36878390#2"/>
 <trip depart="125.0" departLane="best" departSpeed="max" from="5095190#0" id="rs_c000_i000_1423" to="34760663"/>
 <trip depart="125.0" departLane="best" departSpeed="max" from="96559143" id="rs_c001_i000_256" to="-108077299"/>
 <trip depart="126.0" departLane="best" departSpeed="max" from="-607687261#0" id="rs_c000_i000_1434" to="237496662"/>
 <trip depart="127.0" departLane="best" departSpeed="max" from="136864086" id="rs_c000_i000_1442" to="58423646"/>
 <trip depart="128.0" departLane="best" departSpeed="max" from="-93884331" id="rs_c000_i000_1447" to="30290213"/>
 <trip depart="128.0" departLane="best" departSpeed="max" from="-118155453" id="rs_c000_i001_193" to="58423646"/>
 <trip depart="131.0" departLane="best" departSpeed="max" from="-61371680#0" id="rs_c000_i000_1484" to="41882139"/>
 <trip depart="131.0" departLane="best" departSpeed="max" from="-27520209#2" id="rs_c001_i000_265" to="161014734"/>
 <trip depart="132.0" departLane="best" departSpeed="max" from="95937941#1" id="rs_c000_i002_31" to="26187755#0"/>
 <trip depart="134.0" departLane="best" departSpeed="max" from="-772937593" id="rs_c000_i000_1502" to="133114633"/>
 <trip depart="134.0" departLane="best" departSpeed="max" from="-79948186" id="rs_c000_i000_1503" to="24662114#0"/>
 <trip depart="134.0" departLane="best" departSpeed="max" from="-117099153" id="rs_c000_i000_1508" to="25561760"/>
 <trip depart="134.0" departLane="best" departSpeed="max" from="-135654631" id="rs_c000_i001_198" to="89746911#0"/>
 <trip depart="136.0" departLane="best" departSpeed="max" from="-10426171#1" id="rs_c000_i000_1528" to="-5235818"/>
 <trip depart="136.0" departLane="best" departSpeed="max" from="-28539714#0" id="rs_c001_i000_274_part0" to="609759377"/>
 <trip depart="136.0" departLane="best" departSpeed="max" from="5205187" id="rs_c001_i000_277" to="34776006"/>
 <trip depart="137.0" departLane="best" departSpeed="max" from="-314424813" id="rs_c000_i000_1534" to="41882139"/>