<connections xmlns:xsi="http://www.w3.org/2001/XMLSchema-instance" version="1.20" xsi:noNamespaceSchemaLocation="http://sumo.dlr.de/xsd/connections_file.xsd">
    <connection from="-100016823#0" to="117631284" fromLane="0" toLane="0" />
    <connection from="-100016823#0" to="-117631292" fromLane="0" toLane="0" />
    <connection from="-100016823#0" to="-24976239" fromLane="0" toLane="0" />
    <connection from="-100016823#0" to="53682408" fromLane="0" toLane="0" />

    <connection from="-100016823#1" to="117626826" fromLane="0" toLane="0" />
    <connection from="-100016823#1" to="-54584606" fromLane="0" toLane="0" />
    <connection from="-100016823#1" to="-100016823#0" fromLane="0" toLane="0" />
    <connection from="-100016823#1" to="100016823#1" fromLane="0" toLane="0" />

    <connection from="-100016823#2" to="117626824" fromLane="0" toLane="0" />
    <connection from="-100016823#2" to="-100016823#1" fromLane="0" toLane="0" />
    <connection from="-100016823#2" to="100016823#2" fromLane="0" toLane="0" />

    <connection from="-100016823#3" to="117626823#0" fromLane="0" toLane="0" />
    <connection from="-100016823#3" to="-100016823#2" fromLane="0" toLane="0" />
    <connection from="-100016823#3" to="100016823#3" fromLane="0" toLane="0" />

    <connection from="-100018560" to="-5206054" fromLane="0" toLane="0" />
    <connection from="-100018560" to="-124419860" fromLane="0" toLane="0" />
    <connection from="-100018560" to="100018560" fromLane="0" toLane="0" />

    <connection from="-100018562" to="5206109" fromLane="0" toLane="0" />
    <connection from="-100018562" to="-100018567" fromLane="0" toLane="0" />
    <connection from="-100018562" to="100018562" fromLane="0" toLane="0" />

    <connection from="-100018564" to="-100018566#0" fromLane="0" toLane="0" />
    <connection from="-100018564" to="100018566#1" fromLane="0" toLane="0" />
    <connection from="-100018564" to="5205951" fromLane="0" toLane="0" />

    <connection from="-100018566#0" to="-5205918" fromLane="0" toLane="0" />
    <connection from="-100018566#0" to="-5205353#2" fromLane="0" toLane="0" />
    <connection from="-100018566#0" to="100018566#0" fromLane="0" toLane="0" />

    <connection from="-100018566#1" to="5205951" fromLane="0" toLane="0" />
    <connection from="-100018566#1" to="-100018566#0" fromLane="0" toLane="0" />
    <connection from="-100018566#1" to="100018566#1" fromLane="0" toLane="0" />

    <connection from="-100018567" to="5205353#0" fromLane="0" toLane="0" />
    <connection from="-100018567" to="-210282070" fromLane="0" toLane="0" />
    <connection from="-100018567" to="100018567" fromLane="0" toLane="0" />

    <connection from="-100018570#0" to="-100018566#1" fromLane="0" toLane="0" />
    <connection from="-100018570#0" to="-100018560" fromLane="0" toLane="0" />
    <connection from="-100018570#0" to="100018570#0" fromLane="0" toLane="0" />

    <connection from="-100018570#1" to="-100018570#0" fromLane="0" toLane="0" />
    <connection from="-100018570#1" to="5206421" fromLane="0" toLane="0" />
    <connection from="-100018570#1" to="100018570#1" fromLane="0" toLane="0" />

    <connection from="-100073149" to="232003927#1" fromLane="0" toLane="0" />
    <connection from="-100073149" to="-233159131#0" fromLane="0" toLane="0" />
    <connection from="-100073149" to="232003926" fromLane="0" toLane="0" />
    <connection from="-100073149" to="26014498" fromLane="0" toLane="0" />

    <connection from="-100074572#0" to="-29689096#0" fromLane="0" toLane="0" />
    <connection from="-100074572#0" to="5205312" fromLane="0" toLane="0" />
    <connection from="-100074572#0" to="29689096#1" fromLane="0" toLane="0" />

    <connection from="-100074572#1" to="-5205191" fromLane="0" toLane="0" />
    <connection from="-100074572#1" to="-100074572#0" fromLane="0" toLane="0" />
    <connection from="-100074572#1" to="100074572#1" fromLane="0" toLane="0" />

    <connection from="-100721228" to="430412980#0" fromLane="0" toLane="0" />
    <connection from="-100721228" to="233564758#0" fromLane="0" toLane="0" />
    <connection from="-100721228" to="430412976#0" fromLane="1" toLane="1" />
    <connection from="-100721228" to="100721229" fromLane="1" toLane="0" />

    <connection from="-101156620#0" to="-101156627#0" fromLane="0" toLane="0" />
    <connection from="-101156620#0" to="101156627#1" fromLane="0" toLane="0" />

    <connection from="-101156625#0" to="8058693" fromLane="0" toLane="0" />
    <connection from="-101156625#0" to="-101156620#0" fromLane="0" toLane="0" />
    <connection from="-101156625#0" to="101156620#1" fromLane="0" toLane="0" />

    <connection from="-101156627#0" to="78393518#1" fromLane="0" toLane="0" />
    <connection from="-101156627#0" to="-78393518#0" fromLane="0" toLane="0" />
    <connection from="-101156627#0" to="138194568" fromLane="0" toLane="0" />

    <connection from="-101158310" to="-82259070#0" fromLane="0" toLane="0" />
    <connection from="-101158310" to="-82259067" fromLane="0" toLane="0" />
    <connection from="-101158310" to="82259070#1" fromLane="0" toLane="0" />
    <connection from="-101158310" to="379530233" fromLane="0" toLane="0" />

    <connection from="-101372204" to="-107747113#0" fromLane="0" toLane="0" />
    <connection from="-101372204" to="4262252" fromLane="0" toLane="0" />
    <connection from="-101372204" to="107747113#1" fromLane="0" toLane="0" />

    <connection from="-101372210#0" to="-131541123" fromLane="0" toLane="0" />
    <connection from="-101372210#0" to="-81759225#0" fromLane="0" toLane="0" />
    <connection from="-101372210#0" to="81759225#1" fromLane="0" toLane="0" />

    <connection from="-101372216" to="-101376874#0" fromLane="0" toLane="0" />
    <connection from="-101372216" to="101376874#1" fromLane="0" toLane="0" />
    <connection from="-101372216" to="101372207" fromLane="0" toLane="0" />

    <connection from="-101372218" to="101372208" fromLane="0" toLane="0" />

    <connection from="-101376874#0" to="107747113#1" fromLane="0" toLane="0" />
    <connection from="-101376874#0" to="-107747113#0" fromLane="0" toLane="0" />
    <connection from="-101376874#0" to="4262252" fromLane="0" toLane="0" />

    <connection from="-101486395" to="61566225#1" fromLane="0" toLane="0" />
    <connection from="-101486395" to="62115408" fromLane="0" toLane="0" />
    <connection from="-101486395" to="-61566225#0" fromLane="0" toLane="0" />
    <connection from="-101486395" to="61566223" fromLane="0" toLane="0" />

    <connection from="-101491046" to="-75516492#0" fromLane="0" toLane="0" />
    <connection from="-101491046" to="75516492#1" fromLane="0" toLane="0" />
    <connection from="-101491046" to="122590747" fromLane="0" toLane="0" />

    <connection from="-101520672" to="-335084841#0" fromLane="0" toLane="0" />
    <connection from="-101520672" to="335084841#1" fromLane="0" toLane="0" />
    <connection from="-101520672" to="14571572" fromLane="0" toLane="0" />

    <connection from="-101521565" to="101521562" fromLane="0" toLane="0" />
    <connection from="-101521565" to="-101521569#0" fromLane="0" toLane="0" />
    <connection from="-101521565" to="101521569#1" fromLane="0" toLane="0" />

    <connection from="-101521569#0" to="-122388448#0" fromLane="0" toLane="0" />
    <connection from="-101521569#0" to="122388448#1" fromLane="0" toLane="0" />
    <connection from="-101521569#0" to="138003098" fromLane="0" toLane="0" />

    <connection from="-101696905#0" to="-15881544#0" fromLane="0" toLane="0" />
    <connection from="-101696905#0" to="15881544#1" fromLane="0" toLane="0" />
    <connection from="-101696905#0" to="15881542" fromLane="0" toLane="0" />

    <connection from="-101731771" to="-121411749#0" fromLane="0" toLane="0" />
    <connection from="-101731771" to="121411754" fromLane="0" toLane="0" />
    <connection from="-101731771" to="121411749#1" fromLane="0" toLane="0" />

    <connection from="-1020560683" to="-207112860#1" fromLane="0" toLane="0" />
    <connection from="-1020560683" to="207112860#2" fromLane="0" toLane="0" />
    <connection from="-1020560683" to="1020560683" fromLane="0" toLane="0" />

    <connection from="-1020560684" to="71284400#1" fromLane="0" toLane="0" />
    <connection from="-1020560684" to="-71284400#0" fromLane="0" toLane="0" />
    <connection from="-1020560684" to="1058551663" fromLane="0" toLane="0" />

    <connection from="-1022514468" to="-568356675" fromLane="0" toLane="0" />

    <connection from="-1022572939" to="1022572939" fromLane="0" toLane="0" />

    <connection from="-102278339" to="-314422898#0" fromLane="0" toLane="0" />
    <connection from="-102278339" to="314422898#1" fromLane="0" toLane="0" />
    <connection from="-102278339" to="4273629" fromLane="0" toLane="0" />

    <connection from="-102282708#0" to="83171809" fromLane="0" toLane="0" />
    <connection from="-102282708#0" to="-314405014" fromLane="0" toLane="0" />
    <connection from="-102282708#0" to="102282710" fromLane="0" toLane="0" />

    <connection from="-102337972" to="-114183032" fromLane="0" toLane="0" />

    <connection from="-1024008463" to="117590608" fromLane="0" toLane="0" />

    <connection from="-10314886" to="10314886" fromLane="0" toLane="0" />

    <connection from="-103302383#2" to="103302381" fromLane="0" toLane="0" />
    <connection from="-103302383#2" to="26349564#2" fromLane="0" toLane="1" />
    <connection from="-103302383#2" to="103302383#0" fromLane="0" toLane="0" />

    <connection from="-103304620" to="125483769" fromLane="0" toLane="0" />
    <connection from="-103304620" to="-4217917#0" fromLane="0" toLane="0" />
    <connection from="-103304620" to="4217917#1" fromLane="0" toLane="0" />

    <connection from="-10357193" to="-87397780" fromLane="0" toLane="0" />
    <connection from="-10357193" to="4643592" fromLane="0" toLane="0" />
    <connection from="-10357193" to="97694267" fromLane="0" toLane="0" />
    <connection from="-10357193" to="10357193" fromLane="0" toLane="0" />

    <connection from="-10357406#1" to="30326722" fromLane="0" toLane="0" />
    <connection from="-10357406#1" to="-30326721" fromLane="0" toLane="0" />
    <connection from="-10357406#1" to="10357406#0" fromLane="0" toLane="0" />

    <connection from="-10357406#2" to="-61367434" fromLane="0" toLane="0" />
    <connection from="-10357406#2" to="-10357406#1" fromLane="0" toLane="0" />
    <connection from="-10357406#2" to="10357406#2" fromLane="0" toLane="0" />

    <connection from="-10363301" to="839402626#1" fromLane="0" toLane="0" />
    <connection from="-10363301" to="-839402626#0" fromLane="0" toLane="0" />
    <connection from="-10363301" to="10363301" fromLane="0" toLane="0" />

    <connection from="-10363317" to="211208696#1" fromLane="0" toLane="0" />
    <connection from="-10363317" to="-211208696#0" fromLane="0" toLane="0" />
    <connection from="-10363317" to="10363317" fromLane="0" toLane="0" />

    <connection from="-10363468" to="-25361892#3" fromLane="0" toLane="0" />
    <connection from="-10363468" to="25361892#4" fromLane="0" toLane="0" />
    <connection from="-10363468" to="10363468" fromLane="0" toLane="0" />

    <connection from="-10363538" to="125689487#1" fromLane="0" toLane="0" />
    <connection from="-10363538" to="-125689487#0" fromLane="0" toLane="0" />
    <connection from="-10363538" to="10363538" fromLane="0" toLane="0" />

    <connection from="-10363546" to="125689487#2" fromLane="0" toLane="0" />
    <connection from="-10363546" to="-125689487#1" fromLane="0" toLane="0" />
    <connection from="-10363546" to="10363546" fromLane="0" toLane="0" />

    <connection from="-10363555" to="-10363546" fromLane="0" toLane="0" />
    <connection from="-10363555" to="140536663" fromLane="0" toLane="0" />
    <connection from="-10363555" to="10363555" fromLane="0" toLane="0" />

    <connection from="-10372364#0" to="-328253309#0" fromLane="0" toLane="0" />
    <connection from="-10372364#0" to="328253309#1" fromLane="0" toLane="0" />
    <connection from="-10372364#0" to="10372364#0" fromLane="0" toLane="0" />

    <connection from="-10372364#1" to="10372376" fromLane="0" toLane="0" />
    <connection from="-10372364#1" to="-10372364#0" fromLane="0" toLane="0" />
    <connection from="-10372364#1" to="10372364#1" fromLane="0" toLane="0" />

    <connection from="-10372376" to="-10372364#0" fromLane="0" toLane="0" />
    <connection from="-10372376" to="10372364#1" fromLane="0" toLane="0" />
    <connection from="-10372376" to="10372376" fromLane="0" toLane="0" />

    <connection from="-10372461" to="-126709272#1" fromLane="0" toLane="0" />
    <connection from="-10372461" to="126709272#2" fromLane="0" toLane="0" />
    <connection from="-10372461" to="10372461" fromLane="0" toLane="0" />

    <connection from="-10373960" to="10373960" fromLane="0" toLane="0" />

    <connection from="-10374052" to="-211199290#1" fromLane="0" toLane="0" />
    <connection from="-10374052" to="211199290#2" fromLane="0" toLane="0" />
    <connection from="-10374052" to="10374052" fromLane="0" toLane="0" />

    <connection from="-10374120" to="125683988" fromLane="0" toLane="0" />

    <connection from="-10377153#1" to="799189298#1" fromLane="0" toLane="0" />
    <connection from="-10377153#1" to="125683976" fromLane="0" toLane="0" />
    <connection from="-10377153#1" to="10377153#1" fromLane="0" toLane="0" />

    <connection from="-1040326466" to="4260589" fromLane="0" toLane="0" />
    <connection from="-1040326466" to="-116400267" fromLane="0" toLane="0" />
    <connection from="-1040326466" to="1040326466" fromLane="0" toLane="0" />

    <connection from="-10405223#0" to="-25894166#1" fromLane="0" toLane="0" />
    <connection from="-10405223#0" to="25894166#2" fromLane="0" toLane="0" />
    <connection from="-10405223#0" to="10405223#0" fromLane="0" toLane="0" />

    <connection from="-10405223#1" to="10405292" fromLane="0" toLane="0" />
    <connection from="-10405223#1" to="-10405223#0" fromLane="0" toLane="0" />
    <connection from="-10405223#1" to="10405223#1" fromLane="0" toLane="0" />

    <connection from="-10405292" to="-10405223#0" fromLane="0" toLane="0" />
    <connection from="-10405292" to="10405223#1" fromLane="0" toLane="0" />
    <connection from="-10405292" to="10405292" fromLane="0" toLane="0" />

    <connection from="-10405419" to="-210993752#1" fromLane="0" toLane="0" />
    <connection from="-10405419" to="210993752#2" fromLane="0" toLane="0" />
    <connection from="-10405419" to="10405419" fromLane="0" toLane="0" />

    <connection from="-10405686" to="25894166#1" fromLane="0" toLane="0" />
    <connection from="-10405686" to="-25894166#0" fromLane="0" toLane="0" />
    <connection from="-10405686" to="10405686" fromLane="0" toLane="0" />

    <connection from="-10420511" to="4238018#3" fromLane="0" toLane="0" />
    <connection from="-10420511" to="-4238018#2" fromLane="0" toLane="0" />
    <connection from="-10420511" to="10420511" fromLane="0" toLane="0" />

    <connection from="-10420618" to="211042302#1" fromLane="0" toLane="0" />
    <connection from="-10420618" to="-211042302#0" fromLane="0" toLane="0" />
    <connection from="-10420618" to="10420618" fromLane="0" toLane="0" />

    <connection from="-10420635#1" to="53277461#3" fromLane="0" toLane="0" />
    <connection from="-10420635#1" to="327225382" fromLane="0" toLane="0" />
    <connection from="-10420635#1" to="10420635#1" fromLane="0" toLane="0" />

    <connection from="-10420716" to="4242675#1" fromLane="0" toLane="0" />
    <connection from="-10420716" to="-4242675#0" fromLane="0" toLane="0" />
    <connection from="-10420716" to="10420716" fromLane="0" toLane="0" />

    <connection from="-10421231" to="218601757#1" fromLane="0" toLane="0" />
    <connection from="-10421231" to="-218601757#0" fromLane="0" toLane="0" />
    <connection from="-10421231" to="10421231" fromLane="0" toLane="0" />

    <connection from="-10421407" to="4238093#1" fromLane="0" toLane="0" />
    <connection from="-10421407" to="-4238093#0" fromLane="0" toLane="0" />
    <connection from="-10421407" to="10421407" fromLane="0" toLane="0" />

    <connection from="-10425852" to="14573382#3" fromLane="0" toLane="0" />
    <connection from="-10425852" to="-14573382#2" fromLane="0" toLane="0" />
    <connection from="-10425852" to="10425852" fromLane="0" toLane="0" />

    <connection from="-10425858" to="14573382#2" fromLane="0" toLane="0" />
    <connection from="-10425858" to="-14573382#1" fromLane="0" toLane="0" />
    <connection from="-10425858" to="10425858" fromLane="0" toLane="0" />

    <connection from="-10425883" to="-14573382#0" fromLane="0" toLane="0" />
    <connection from="-10425883" to="14573382#1" fromLane="0" toLane="0" />
    <connection from="-10425883" to="10425883" fromLane="0" toLane="0" />

    <connection from="-10426011#1" to="166533654#1" fromLane="0" toLane="0" />
    <connection from="-10426011#1" to="10425893#1" fromLane="0" toLane="0" />
    <connection from="-10426011#1" to="10426011#1" fromLane="0" toLane="0" />

    <connection from="-10426021#1" to="10425893#2" fromLane="0" toLane="0" />
    <connection from="-10426021#1" to="166533651" fromLane="0" toLane="0" />
    <connection from="-10426021#1" to="10426021#1" fromLane="0" toLane="0" />

    <connection from="-10426031#1" to="10425893#3" fromLane="0" toLane="0" />
    <connection from="-10426031#1" to="51340803#1" fromLane="0" toLane="0" />
    <connection from="-10426031#1" to="10426031#1" fromLane="0" toLane="0" />

    <connection from="-10426053#1" to="10426000" fromLane="0" toLane="0" />
    <connection from="-10426053#1" to="147133779" fromLane="0" toLane="0" />
    <connection from="-10426053#1" to="10426053#1" fromLane="0" toLane="0" />

    <connection from="-10426053#2" to="22475853" fromLane="0" toLane="0" />
    <connection from="-10426053#2" to="-10426053#1" fromLane="0" toLane="0" />
    <connection from="-10426053#2" to="10426053#2" fromLane="0" toLane="0" />

    <connection from="-10426053#3" to="-10426053#2" fromLane="0" toLane="0" />
    <connection from="-10426053#3" to="10426057" fromLane="0" toLane="0" />
    <connection from="-10426053#3" to="10426053#3" fromLane="0" toLane="0" />

    <connection from="-10426057" to="10426053#3" fromLane="0" toLane="0" />
    <connection from="-10426057" to="-10426053#2" fromLane="0" toLane="0" />
    <connection from="-10426057" to="10426057" fromLane="0" toLane="0" />

    <connection from="-10426113#0" to="10426113#0" fromLane="0" toLane="0" />

    <connection from="-10426171#0" to="-16345605#0" fromLane="0" toLane="0" />
    <connection from="-10426171#0" to="16345605#1" fromLane="0" toLane="0" />
    <connection from="-10426171#0" to="10426171#0" fromLane="0" toLane="0" />

    <connection from="-10426171#1" to="-10426171#0" fromLane="0" toLane="0" />
    <connection from="-10426171#1" to="10426173" fromLane="0" toLane="0" />
    <connection from="-10426171#1" to="10426171#1" fromLane="0" toLane="0" />

    <connection from="-10426173" to="10426171#1" fromLane="0" toLane="0" />
    <connection from="-10426173" to="-10426171#0" fromLane="0" toLane="0" />
    <connection from="-10426173" to="10426173" fromLane="0" toLane="0" />

    <connection from="-10426204#0" to="-183247519#0" fromLane="0" toLane="0" />
    <connection from="-10426204#0" to="183247519#1" fromLane="0" toLane="0" />
    <connection from="-10426204#0" to="10426204#0" fromLane="0" toLane="0" />

    <connection from="-10426204#1" to="-10426204#0" fromLane="0" toLane="0" />
    <connection from="-10426204#1" to="10426219" fromLane="0" toLane="0" />
    <connection from="-10426204#1" to="10426204#1" fromLane="0" toLane="0" />

    <connection from="-10426219" to="10426204#1" fromLane="0" toLane="0" />
    <connection from="-10426219" to="-10426204#0" fromLane="0" toLane="0" />
    <connection from="-10426219" to="10426219" fromLane="0" toLane="0" />

    <connection from="-10436546" to="-51340266#0" fromLane="0" toLane="0" />
    <connection from="-10436546" to="51340266#1" fromLane="0" toLane="0" />
    <connection from="-10436546" to="10436546" fromLane="0" toLane="0" />

    <connection from="-10500850" to="61579093#1" fromLane="0" toLane="0" />
    <connection from="-10500850" to="-61579093#0" fromLane="0" toLane="0" />
    <connection from="-10500850" to="10500850" fromLane="0" toLane="0" />

    <connection from="-10500974" to="10500974" fromLane="0" toLane="0" />

    <connection from="-10501671" to="10501707" fromLane="0" toLane="0" />
    <connection from="-10501671" to="-212688462#0" fromLane="0" toLane="0" />
    <connection from="-10501671" to="212688462#1" fromLane="0" toLane="0" />

    <connection from="-10501707" to="-212688462#0" fromLane="0" toLane="0" />
    <connection from="-10501707" to="212688462#1" fromLane="0" toLane="0" />
    <connection from="-10501707" to="10501707" fromLane="0" toLane="0" />

    <connection from="-10502291#1" to="18648957#0" fromLane="0" toLane="0" />
    <connection from="-10502291#1" to="132817973#1" fromLane="0" toLane="0" />
    <connection from="-10502291#1" to="10502291#1" fromLane="0" toLane="0" />

    <connection from="-1050700447" to="-158766045#0" fromLane="0" toLane="0" />
    <connection from="-1050700447" to="158766045#1" fromLane="0" toLane="0" />
    <connection from="-1050700447" to="1050700447" fromLane="0" toLane="0" />

    <connection from="-1050700448" to="-8730437" fromLane="0" toLane="0" />

    <connection from="-10508541" to="183512801#1" fromLane="0" toLane="0" />
    <connection from="-10508541" to="-183512801#0" fromLane="0" toLane="0" />
    <connection from="-10508541" to="10508541" fromLane="0" toLane="0" />

    <connection from="-10508719" to="212690608#3" fromLane="0" toLane="0" />
    <connection from="-10508719" to="-212690608#2" fromLane="0" toLane="0" />
    <connection from="-10508719" to="10508719" fromLane="0" toLane="0" />

    <connection from="-10508974#0" to="10508974#0" fromLane="0" toLane="0" />

    <connection from="-10509023" to="-10508974#0" fromLane="0" toLane="0" />
    <connection from="-10509023" to="10508974#1" fromLane="0" toLane="0" />
    <connection from="-10509023" to="10509023" fromLane="0" toLane="0" />

    <connection from="-10516147#0" to="212687129#1" fromLane="0" toLane="0" />
    <connection from="-10516147#0" to="-212687129#0" fromLane="0" toLane="0" />
    <connection from="-10516147#0" to="10516147#0" fromLane="0" toLane="0" />

    <connection from="-10516147#1" to="-10516147#0" fromLane="0" toLane="0" />
    <connection from="-10516147#1" to="10516236" fromLane="0" toLane="0" />
    <connection from="-10516147#1" to="10516147#1" fromLane="0" toLane="0" />

    <connection from="-10516147#2" to="-10516147#1" fromLane="0" toLane="0" />
    <connection from="-10516147#2" to="187371398" fromLane="0" toLane="0" />
    <connection from="-10516147#2" to="10516147#2" fromLane="0" toLane="0" />

    <connection from="-10516236" to="10516147#1" fromLane="0" toLane="0" />
    <connection from="-10516236" to="-10516147#0" fromLane="0" toLane="0" />
    <connection from="-10516236" to="10516236" fromLane="0" toLane="0" />

    <connection from="-10516368" to="212687129#2" fromLane="0" toLane="0" />
    <connection from="-10516368" to="-212687129#1" fromLane="0" toLane="0" />
    <connection from="-10516368" to="10516368" fromLane="0" toLane="0" />

    <connection from="-10516453" to="-212687129#2" fromLane="0" toLane="0" />
    <connection from="-10516453" to="212687129#3" fromLane="0" toLane="0" />
    <connection from="-10516453" to="10516453" fromLane="0" toLane="0" />

    <connection from="-10516873" to="333156359#3" fromLane="0" toLane="0" />
    <connection from="-10516873" to="-333144425" fromLane="0" toLane="0" />
    <connection from="-10516873" to="-333156359#1" fromLane="0" toLane="0" />
    <connection from="-10516873" to="10516873" fromLane="0" toLane="0" />

    <connection from="-10518945" to="24031434#2" fromLane="0" toLane="0" />
    <connection from="-10518945" to="-24031434#1" fromLane="0" toLane="0" />
    <connection from="-10518945" to="10518945" fromLane="0" toLane="0" />

    <connection from="-10519190" to="-333137873#0" fromLane="0" toLane="0" />
    <connection from="-10519190" to="333137873#1" fromLane="0" toLane="0" />
    <connection from="-10519190" to="10519190" fromLane="0" toLane="0" />

    <connection from="-10519431" to="-125143986" fromLane="0" toLane="0" />
    <connection from="-10519431" to="10519419" fromLane="0" toLane="0" />
    <connection from="-10519431" to="10519431" fromLane="0" toLane="0" />

    <connection from="-105208819" to="-115915281" fromLane="0" toLane="0" />
    <connection from="-105208819" to="-115798784#0" fromLane="0" toLane="0" />
    <connection from="-105208819" to="115798784#1" fromLane="0" toLane="0" />

    <connection from="-105208820#0" to="-105261685" fromLane="0" toLane="0" />

    <connection from="-1052613455" to="1052613455" fromLane="0" toLane="0" />

    <connection from="-105261685" to="-105208819" fromLane="0" toLane="0" />
    <connection from="-105261685" to="4261962" fromLane="0" toLane="0" />
    <connection from="-105261685" to="126548985" fromLane="0" toLane="0" />

    <connection from="-1054193549" to="-177401370#1" fromLane="0" toLane="0" />
    <connection from="-1054193549" to="177401370#0" fromLane="0" toLane="0" />
    <connection from="-1054193549" to="1054193549" fromLane="0" toLane="0" />

    <connection from="-1054290416" to="-5086869#0" fromLane="0" toLane="0" />
    <connection from="-1054290416" to="5086869#1" fromLane="0" toLane="0" />
    <connection from="-1054290416" to="1054290416" fromLane="0" toLane="0" />

    <connection from="-10557968" to="-47089824" fromLane="0" toLane="0" />

    <connection from="-10558007#0" to="8141209" fromLane="0" toLane="0" />
    <connection from="-10558007#0" to="5234697" fromLane="0" toLane="0" />
    <connection from="-10558007#0" to="10558007#0" fromLane="0" toLane="0" />

    <connection from="-10558102" to="84639218" fromLane="0" toLane="0" />

    <connection from="-10558824" to="286175725#3" fromLane="0" toLane="0" />
    <connection from="-10558824" to="-286175725#2" fromLane="0" toLane="0" />
    <connection from="-10558824" to="10558824" fromLane="0" toLane="0" />

    <connection from="-10559035" to="-86527626" fromLane="0" toLane="0" />
    <connection from="-10559035" to="-349909771" fromLane="0" toLane="0" />
    <connection from="-10559035" to="26368312" fromLane="0" toLane="0" />
    <connection from="-10559035" to="10559035" fromLane="0" toLane="0" />

    <connection from="-10559379" to="848436001#1" fromLane="0" toLane="0" visibility="9.00" />

    <connection from="-10560448#0" to="-5042136#1" fromLane="0" toLane="0" />
    <connection from="-10560448#0" to="-5047230#1" fromLane="0" toLane="0" />
    <connection from="-10560448#0" to="5042136#2" fromLane="0" toLane="0" />
    <connection from="-10560448#0" to="10560448#0" fromLane="0" toLane="0" />

    <connection from="-10560448#1" to="10560462" fromLane="0" toLane="0" />
    <connection from="-10560448#1" to="-10560448#0" fromLane="0" toLane="0" />
    <connection from="-10560448#1" to="10560448#1" fromLane="0" toLane="0" />

    <connection from="-10560448#2" to="-10560448#1" fromLane="0" toLane="0" />
    <connection from="-10560448#2" to="10560471" fromLane="0" toLane="0" />
    <connection from="-10560448#2" to="10560448#2" fromLane="0" toLane="0" />

    <connection from="-10560462" to="-10560448#0" fromLane="0" toLane="0" />
    <connection from="-10560462" to="10560448#1" fromLane="0" toLane="0" />
    <connection from="-10560462" to="10560462" fromLane="0" toLane="0" />

    <connection from="-10560471" to="10560448#2" fromLane="0" toLane="0" />
    <connection from="-10560471" to="-10560448#1" fromLane="0" toLane="0" />
    <connection from="-10560471" to="10560471" fromLane="0" toLane="0" />

    <connection from="-10560519" to="-351186843#0" fromLane="0" toLane="0" />
    <connection from="-10560519" to="351186843#1" fromLane="0" toLane="0" />
    <connection from="-10560519" to="10560519" fromLane="0" toLane="0" />

    <connection from="-10560541#0" to="-10560519" fromLane="0" toLane="0" />
    <connection from="-10560541#0" to="46847992" fromLane="0" toLane="0" />
    <connection from="-10560541#0" to="10560541#0" fromLane="0" toLane="0" />

    <connection from="-10560541#1" to="10560572#0" fromLane="0" toLane="0" />
    <connection from="-10560541#1" to="-10560541#0" fromLane="0" toLane="0" />
    <connection from="-10560541#1" to="10560541#1" fromLane="0" toLane="0" />

    <connection from="-10560541#2" to="-10560541#1" fromLane="0" toLane="0" />
    <connection from="-10560541#2" to="4705004#0" fromLane="0" toLane="0" />
    <connection from="-10560541#2" to="10560541#2" fromLane="0" toLane="0" />

    <connection from="-10560572#0" to="-10560541#0" fromLane="0" toLane="0" />
    <connection from="-10560572#0" to="10560541#1" fromLane="0" toLane="0" />
    <connection from="-10560572#0" to="10560572#0" fromLane="0" toLane="0" />

    <connection from="-10560572#1" to="10560592" fromLane="0" toLane="0" />
    <connection from="-10560572#1" to="-10560572#0" fromLane="0" toLane="0" />
    <connection from="-10560572#1" to="10560572#1" fromLane="0" toLane="0" />

    <connection from="-10560592" to="-10560572#0" fromLane="0" toLane="0" />
    <connection from="-10560592" to="10560572#1" fromLane="0" toLane="0" />
    <connection from="-10560592" to="10560592" fromLane="0" toLane="0" />

    <connection from="-10560633" to="-351188857#0" fromLane="0" toLane="0" />
    <connection from="-10560633" to="351188857#1" fromLane="0" toLane="0" />
    <connection from="-10560633" to="10560633" fromLane="0" toLane="0" />

    <connection from="-10560646#0" to="46828406" fromLane="0" toLane="0" />
