<?xml version="1.0" encoding="UTF-8"?>

<!-- generated on 2024-07-11 17:48:14.315363 by generateParkingAreas.py v1_19_0+2078-88426099c44
<configuration>
    <net-file value="C:\Users\bochenin\RL project\materials\ridesharing\Helsinki\toy example\demand generation\area3_gcc_plain.net.xml"/>
    <output-file value="C:\Users\bochenin\RL project\materials\ridesharing\Helsinki\toy example\demand generation\area3_gcc_parkingareas_plain.add.xml"/>
</configuration>
-->

<additional xmlns:xsi="http://www.w3.org/2001/XMLSchema-instance" xsi:noNamespaceSchemaLocation="http://sumo.dlr.de/xsd/additional_file.xsd">
    <parkingArea id="pa-100016823#0" lane="-100016823#0_0" roadsideCapacity="37" length="5"/>
    <parkingArea id="pa-100016823#1" lane="-100016823#1_0" roadsideCapacity="13" length="5"/>
    <parkingArea id="pa-100016823#2" lane="-100016823#2_0" roadsideCapacity="14" length="5"/>
    <parkingArea id="pa-100016823#3" lane="-100016823#3_0" roadsideCapacity="7" length="5"/>
    <parkingArea id="pa-100018560" lane="-100018560_0" roadsideCapacity="14" length="5"/>
    <parkingArea id="pa-100018562" lane="-100018562_0" roadsideCapacity="11" length="5"/>
    <parkingArea id="pa-100018564" lane="-100018564_0" roadsideCapacity="18" length="5"/>
    <parkingArea id="pa-100018566#0" lane="-100018566#0_0" roadsideCapacity="5" length="5"/>
    <parkingArea id="pa-100018566#1" lane="-100018566#1_0" roadsideCapacity="43" length="5"/>
    <parkingArea id="pa-100018567" lane="-100018567_0" roadsideCapacity="56" length="5"/>
    <parkingArea id="pa-100018570#0" lane="-100018570#0_0" roadsideCapacity="2" length="5"/>
    <parkingArea id="pa-100018570#1" lane="-100018570#1_0" roadsideCapacity="62" length="5"/>
    <parkingArea id="pa-100073149" lane="-100073149_0" roadsideCapacity="53" length="5"/>
    <parkingArea id="pa-100074572#0" lane="-100074572#0_0" roadsideCapacity="26" length="5"/>
    <parkingArea id="pa-100074572#1" lane="-100074572#1_0" roadsideCapacity="18" length="5"/>
    <parkingArea id="pa-100721228" lane="-100721228_0" roadsideCapacity="5" length="5"/>
    <parkingArea id="pa-101156620#0" lane="-101156620#0_0" roadsideCapacity="6" length="5"/>
    <parkingArea id="pa-101156625#0" lane="-101156625#0_0" roadsideCapacity="6" length="5"/>
    <parkingArea id="pa-101156627#0" lane="-101156627#0_0" roadsideCapacity="10" length="5"/>
    <parkingArea id="pa-101158310" lane="-101158310_0" roadsideCapacity="28" length="5"/>
    <parkingArea id="pa-101372204" lane="-101372204_0" roadsideCapacity="14" length="5"/>
    <parkingArea id="pa-101372210#0" lane="-101372210#0_0" roadsideCapacity="13" length="5"/>
    <parkingArea id="pa-101372216" lane="-101372216_0" roadsideCapacity="8" length="5"/>
    <parkingArea id="pa-101372218" lane="-101372218_0" roadsideCapacity="24" length="5"/>
    <parkingArea id="pa-101376874#0" lane="-101376874#0_0" roadsideCapacity="16" length="5"/>
    <parkingArea id="pa-101486395" lane="-101486395_0" roadsideCapacity="20" length="5"/>
    <parkingArea id="pa-101491046" lane="-101491046_0" roadsideCapacity="2" length="5"/>
    <parkingArea id="pa-101520672" lane="-101520672_0" roadsideCapacity="14" length="5"/>
    <parkingArea id="pa-101521565" lane="-101521565_0" roadsideCapacity="5" length="5"/>
    <parkingArea id="pa-101521569#0" lane="-101521569#0_0" roadsideCapacity="31" length="5"/>
    <parkingArea id="pa-101696905#0" lane="-101696905#0_0" roadsideCapacity="11" length="5"/>
    <parkingArea id="pa-101731771" lane="-101731771_0" roadsideCapacity="21" length="5"/>
    <parkingArea id="pa-1020560683" lane="-1020560683_0" roadsideCapacity="9" length="5"/>
    <parkingArea id="pa-1020560684" lane="-1020560684_0" roadsideCapacity="7" length="5"/>
    <parkingArea id="pa-102278339" lane="-102278339_0" roadsideCapacity="16" length="5"/>
    <parkingArea id="pa-102282708#0" lane="-102282708#0_0" roadsideCapacity="4" length="5"/>
    <parkingArea id="pa-102337972" lane="-102337972_0" roadsideCapacity="3" length="5"/>
    <parkingArea id="pa-1024008463" lane="-1024008463_0" roadsideCapacity="50" length="5"/>
    <parkingArea id="pa-10314886" lane="-10314886_0" roadsideCapacity="15" length="5"/>
    <parkingArea id="pa-103302383#2" lane="-103302383#2_0" roadsideCapacity="2" length="5"/>
    <parkingArea id="pa-103304620" lane="-103304620_0" roadsideCapacity="63" length="5"/>
    <parkingArea id="pa-10357193" lane="-10357193_0" roadsideCapacity="3" length="5"/>
    <parkingArea id="pa-10363301" lane="-10363301_0" roadsideCapacity="18" length="5"/>
    <parkingArea id="pa-10363317" lane="-10363317_0" roadsideCapacity="8" length="5"/>
    <parkingArea id="pa-10363468" lane="-10363468_0" roadsideCapacity="11" length="5"/>
    <parkingArea id="pa-10363538" lane="-10363538_0" roadsideCapacity="13" length="5"/>
    <parkingArea id="pa-10363546" lane="-10363546_0" roadsideCapacity="20" length="5"/>
    <parkingArea id="pa-10363555" lane="-10363555_0" roadsideCapacity="11" length="5"/>
    <parkingArea id="pa-10372364#0" lane="-10372364#0_0" roadsideCapacity="28" length="5"/>
    <parkingArea id="pa-10372364#1" lane="-10372364#1_0" roadsideCapacity="27" length="5"/>
    <parkingArea id="pa-10372376" lane="-10372376_0" roadsideCapacity="6" length="5"/>
    <parkingArea id="pa-10372461" lane="-10372461_0" roadsideCapacity="9" length="5"/>
    <parkingArea id="pa-10373960" lane="-10373960_0" roadsideCapacity="44" length="5"/>
    <parkingArea id="pa-10374052" lane="-10374052_0" roadsideCapacity="21" length="5"/>
    <parkingArea id="pa-10374120" lane="-10374120_0" roadsideCapacity="25" length="5"/>
    <parkingArea id="pa-10377153#1" lane="-10377153#1_0" roadsideCapacity="19" length="5"/>
    <parkingArea id="pa-10405223#0" lane="-10405223#0_0" roadsideCapacity="13" length="5"/>
    <parkingArea id="pa-10405223#1" lane="-10405223#1_0" roadsideCapacity="14" length="5"/>
    <parkingArea id="pa-10405292" lane="-10405292_0" roadsideCapacity="18" length="5"/>
    <parkingArea id="pa-10405419" lane="-10405419_0" roadsideCapacity="18" length="5"/>
    <parkingArea id="pa-10405686" lane="-10405686_0" roadsideCapacity="12" length="5"/>
    <parkingArea id="pa-10420511" lane="-10420511_0" roadsideCapacity="21" length="5"/>
    <parkingArea id="pa-10420618" lane="-10420618_0" roadsideCapacity="6" length="5"/>
    <parkingArea id="pa-10420635#1" lane="-10420635#1_0" roadsideCapacity="11" length="5"/>
    <parkingArea id="pa-10420716" lane="-10420716_0" roadsideCapacity="24" length="5"/>
    <parkingArea id="pa-10421231" lane="-10421231_0" roadsideCapacity="29" length="5"/>
    <parkingArea id="pa-10421407" lane="-10421407_0" roadsideCapacity="5" length="5"/>
    <parkingArea id="pa-10425852" lane="-10425852_0" roadsideCapacity="11" length="5"/>
    <parkingArea id="pa-10425858" lane="-10425858_0" roadsideCapacity="11" length="5"/>
    <parkingArea id="pa-10425883" lane="-10425883_0" roadsideCapacity="8" length="5"/>
    <parkingArea id="pa-10426011#1" lane="-10426011#1_0" roadsideCapacity="5" length="5"/>
    <parkingArea id="pa-10426021#1" lane="-10426021#1_0" roadsideCapacity="4" length="5"/>
    <parkingArea id="pa-10426031#1" lane="-10426031#1_0" roadsideCapacity="13" length="5"/>
    <parkingArea id="pa-10426053#1" lane="-10426053#1_0" roadsideCapacity="34" length="5"/>
    <parkingArea id="pa-10426053#2" lane="-10426053#2_0" roadsideCapacity="18" length="5"/>
    <parkingArea id="pa-10426053#3" lane="-10426053#3_0" roadsideCapacity="6" length="5"/>
    <parkingArea id="pa-10426057" lane="-10426057_0" roadsideCapacity="9" length="5"/>
    <parkingArea id="pa-10426113#0" lane="-10426113#0_0" roadsideCapacity="11" length="5"/>
    <parkingArea id="pa-10426171#0" lane="-10426171#0_0" roadsideCapacity="1" length="5"/>
    <parkingArea id="pa-10426171#1" lane="-10426171#1_0" roadsideCapacity="29" length="5"/>
    <parkingArea id="pa-10426173" lane="-10426173_0" roadsideCapacity="8" length="5"/>
    <parkingArea id="pa-10426204#0" lane="-10426204#0_0" roadsideCapacity="10" length="5"/>
    <parkingArea id="pa-10426204#1" lane="-10426204#1_0" roadsideCapacity="41" length="5"/>
    <parkingArea id="pa-10426219" lane="-10426219_0" roadsideCapacity="19" length="5"/>
    <parkingArea id="pa-10436546" lane="-10436546_0" roadsideCapacity="11" length="5"/>
    <parkingArea id="pa-10500850" lane="-10500850_0" roadsideCapacity="23" length="5"/>
    <parkingArea id="pa-10500974" lane="-10500974_0" roadsideCapacity="34" length="5"/>
    <parkingArea id="pa-10501671" lane="-10501671_0" roadsideCapacity="18" length="5"/>
    <parkingArea id="pa-10501707" lane="-10501707_0" roadsideCapacity="50" length="5"/>
    <parkingArea id="pa-10502291#1" lane="-10502291#1_0" roadsideCapacity="10" length="5"/>
    <parkingArea id="pa-1050700447" lane="-1050700447_0" roadsideCapacity="1" length="5"/>
    <parkingArea id="pa-1050700448" lane="-1050700448_0" roadsideCapacity="1" length="5"/>
    <parkingArea id="pa-10508974#0" lane="-10508974#0_0" roadsideCapacity="6" length="5"/>
    <parkingArea id="pa-10509023" lane="-10509023_0" roadsideCapacity="8" length="5"/>
    <parkingArea id="pa-10516147#0" lane="-10516147#0_0" roadsideCapacity="11" length="5"/>
    <parkingArea id="pa-10516147#1" lane="-10516147#1_0" roadsideCapacity="16" length="5"/>
    <parkingArea id="pa-10516147#2" lane="-10516147#2_0" roadsideCapacity="4" length="5"/>
    <parkingArea id="pa-10516236" lane="-10516236_0" roadsideCapacity="32" length="5"/>
    <parkingArea id="pa-10516368" lane="-10516368_0" roadsideCapacity="42" length="5"/>
    <parkingArea id="pa-10516453" lane="-10516453_0" roadsideCapacity="11" length="5"/>
    <parkingArea id="pa-10516873" lane="-10516873_0" roadsideCapacity="6" length="5"/>
    <parkingArea id="pa-10518945" lane="-10518945_0" roadsideCapacity="42" length="5"/>
    <parkingArea id="pa-10519190" lane="-10519190_0" roadsideCapacity="7" length="5"/>
    <parkingArea id="pa-10519431" lane="-10519431_0" roadsideCapacity="12" length="5"/>
    <parkingArea id="pa-105208819" lane="-105208819_0" roadsideCapacity="13" length="5"/>
    <parkingArea id="pa-105208820#0" lane="-105208820#0_0" roadsideCapacity="5" length="5"/>
    <parkingArea id="pa-1052613455" lane="-1052613455_0" roadsideCapacity="9" length="5"/>
    <parkingArea id="pa-105261685" lane="-105261685_0" roadsideCapacity="18" length="5"/>
    <parkingArea id="pa-1054193549" lane="-1054193549_0" roadsideCapacity="1" length="5"/>
    <parkingArea id="pa-1054290416" lane="-1054290416_0" roadsideCapacity="5" length="5"/>
    <parkingArea id="pa-10557968" lane="-10557968_0" roadsideCapacity="37" length="5"/>
    <parkingArea id="pa-10558007#0" lane="-10558007#0_0" roadsideCapacity="3" length="5"/>
    <parkingArea id="pa-10558102" lane="-10558102_0" roadsideCapacity="36" length="5"/>
    <parkingArea id="pa-10559035" lane="-10559035_0" roadsideCapacity="7" length="5"/>
    <parkingArea id="pa-10559379" lane="-10559379_0" roadsideCapacity="64" length="5"/>
    <parkingArea id="pa-10560448#0" lane="-10560448#0_0" roadsideCapacity="2" length="5"/>
    <parkingArea id="pa-10560448#1" lane="-10560448#1_0" roadsideCapacity="3" length="5"/>
    <parkingArea id="pa-10560448#2" lane="-10560448#2_0" roadsideCapacity="11" length="5"/>
    <parkingArea id="pa-10560462" lane="-10560462_0" roadsideCapacity="24" length="5"/>
    <parkingArea id="pa-10560471" lane="-10560471_0" roadsideCapacity="6" length="5"/>
    <parkingArea id="pa-10560519" lane="-10560519_0" roadsideCapacity="14" length="5"/>
    <parkingArea id="pa-10560541#0" lane="-10560541#0_0" roadsideCapacity="7" length="5"/>
    <parkingArea id="pa-10560541#1" lane="-10560541#1_0" roadsideCapacity="19" length="5"/>
    <parkingArea id="pa-10560541#2" lane="-10560541#2_0" roadsideCapacity="7" length="5"/>
    <parkingArea id="pa-10560572#0" lane="-10560572#0_0" roadsideCapacity="8" length="5"/>
    <parkingArea id="pa-10560572#1" lane="-10560572#1_0" roadsideCapacity="10" length="5"/>
    <parkingArea id="pa-10560592" lane="-10560592_0" roadsideCapacity="7" length="5"/>
    <parkingArea id="pa-10560633" lane="-10560633_0" roadsideCapacity="8" length="5"/>
    <parkingArea id="pa-10560646#0" lane="-10560646#0_0" roadsideCapacity="18" length="5"/>
    <parkingArea id="pa-10560646#1" lane="-10560646#1_0" roadsideCapacity="33" length="5"/>
    <parkingArea id="pa-10560657" lane="-10560657_0" roadsideCapacity="56" length="5"/>
    <parkingArea id="pa-10560678" lane="-10560678_0" roadsideCapacity="1" length="5"/>
    <parkingArea id="pa-10560697#1" lane="-10560697#1_0" roadsideCapacity="28" length="5"/>
    <parkingArea id="pa-10560697#2" lane="-10560697#2_0" roadsideCapacity="5" length="5"/>
    <parkingArea id="pa-10560697#3" lane="-10560697#3_0" roadsideCapacity="11" length="5"/>
    <parkingArea id="pa-10560705" lane="-10560705_0" roadsideCapacity="17" length="5"/>
    <parkingArea id="pa-10560708" lane="-10560708_0" roadsideCapacity="25" length="5"/>
    <parkingArea id="pa-10560717" lane="-10560717_0" roadsideCapacity="24" length="5"/>
    <parkingArea id="pa-10560720" lane="-10560720_0" roadsideCapacity="13" length="5"/>
    <parkingArea id="pa-10560792" lane="-10560792_0" roadsideCapacity="7" length="5"/>
    <parkingArea id="pa-10560902#0" lane="-10560902#0_0" roadsideCapacity="25" length="5"/>
    <parkingArea id="pa-10560988" lane="-10560988_0" roadsideCapacity="2" length="5"/>
    <parkingArea id="pa-10560992#0" lane="-10560992#0_0" roadsideCapacity="11" length="5"/>
    <parkingArea id="pa-10560992#1" lane="-10560992#1_0" roadsideCapacity="6" length="5"/>
    <parkingArea id="pa-10561496" lane="-10561496_0" roadsideCapacity="2" length="5"/>
    <parkingArea id="pa-10561499" lane="-10561499_0" roadsideCapacity="18" length="5"/>
    <parkingArea id="pa-10561507" lane="-10561507_0" roadsideCapacity="24" length="5"/>
    <parkingArea id="pa-10561515#0" lane="-10561515#0_0" roadsideCapacity="16" length="5"/>
    <parkingArea id="pa-10561515#1" lane="-10561515#1_0" roadsideCapacity="7" length="5"/>
    <parkingArea id="pa-10561523" lane="-10561523_0" roadsideCapacity="5" length="5"/>
    <parkingArea id="pa-10561558" lane="-10561558_0" roadsideCapacity="69" length="5"/>
    <parkingArea id="pa-10561570" lane="-10561570_0" roadsideCapacity="10" length="5"/>
    <parkingArea id="pa-10561588" lane="-10561588_0" roadsideCapacity="27" length="5"/>
    <parkingArea id="pa-10561595" lane="-10561595_0" roadsideCapacity="10" length="5"/>
    <parkingArea id="pa-10561619" lane="-10561619_0" roadsideCapacity="32" length="5"/>
    <parkingArea id="pa-10561628" lane="-10561628_0" roadsideCapacity="12" length="5"/>
    <parkingArea id="pa-10561641" lane="-10561641_0" roadsideCapacity="2" length="5"/>
    <parkingArea id="pa-10561708" lane="-10561708_0" roadsideCapacity="16" length="5"/>
    <parkingArea id="pa-10561826" lane="-10561826_0" roadsideCapacity="32" length="5"/>
    <parkingArea id="pa-10561865" lane="-10561865_0" roadsideCapacity="42" length="5"/>
    <parkingArea id="pa-10561967#0" lane="-10561967#0_0" roadsideCapacity="12" length="5"/>
    <parkingArea id="pa-10561967#1" lane="-10561967#1_0" roadsideCapacity="19" length="5"/>
    <parkingArea id="pa-10561982" lane="-10561982_0" roadsideCapacity="8" length="5"/>
    <parkingArea id="pa-10562027" lane="-10562027_0" roadsideCapacity="16" length="5"/>
    <parkingArea id="pa-106089939#0" lane="-106089939#0_0" roadsideCapacity="5" length="5"/>
    <parkingArea id="pa-106089939#1" lane="-106089939#1_0" roadsideCapacity="10" length="5"/>
    <parkingArea id="pa-106089939#2" lane="-106089939#2_0" roadsideCapacity="8" length="5"/>
    <parkingArea id="pa-106089939#3" lane="-106089939#3_0" roadsideCapacity="29" length="5"/>
    <parkingArea id="pa-106089939#4" lane="-106089939#4_0" roadsideCapacity="59" length="5"/>
    <parkingArea id="pa-1068887496" lane="-1068887496_0" roadsideCapacity="19" length="5"/>
    <parkingArea id="pa-1069054067" lane="-1069054067_0" roadsideCapacity="14" length="5"/>
    <parkingArea id="pa-107287649#0" lane="-107287649#0_0" roadsideCapacity="25" length="5"/>
    <parkingArea id="pa-107356080" lane="-107356080_0" roadsideCapacity="18" length="5"/>
    <parkingArea id="pa-107356084" lane="-107356084_0" roadsideCapacity="35" length="5"/>
    <parkingArea id="pa-107377064" lane="-107377064_0" roadsideCapacity="1" length="5"/>
    <parkingArea id="pa-107378079" lane="-107378079_0" roadsideCapacity="26" length="5"/>
    <parkingArea id="pa-107378081" lane="-107378081_0" roadsideCapacity="29" length="5"/>
    <parkingArea id="pa-107537804#0" lane="-107537804#0_0" roadsideCapacity="3" length="5"/>
    <parkingArea id="pa-107537804#1" lane="-107537804#1_0" roadsideCapacity="7" length="5"/>
    <parkingArea id="pa-1075684663#0" lane="-1075684663#0_0" roadsideCapacity="4" length="5"/>
    <parkingArea id="pa-1075684663#1" lane="-1075684663#1_0" roadsideCapacity="2" length="5"/>
    <parkingArea id="pa-107681116#0" lane="-107681116#0_0" roadsideCapacity="20" length="5"/>
    <parkingArea id="pa-107681117" lane="-107681117_0" roadsideCapacity="16" length="5"/>
    <parkingArea id="pa-107681126#0" lane="-107681126#0_0" roadsideCapacity="17" length="5"/>
    <parkingArea id="pa-107681127#0" lane="-107681127#0_0" roadsideCapacity="15" length="5"/>
    <parkingArea id="pa-107681198#0" lane="-107681198#0_0" roadsideCapacity="80" length="5"/>
    <parkingArea id="pa-1076834854" lane="-1076834854_0" roadsideCapacity="6" length="5"/>
    <parkingArea id="pa-107736956#0" lane="-107736956#0_0" roadsideCapacity="15" length="5"/>
    <parkingArea id="pa-107736956#1" lane="-107736956#1_0" roadsideCapacity="2" length="5"/>
    <parkingArea id="pa-107736956#2" lane="-107736956#2_0" roadsideCapacity="12" length="5"/>
    <parkingArea id="pa-107736964" lane="-107736964_0" roadsideCapacity="9" length="5"/>
    <parkingArea id="pa-107747113#0" lane="-107747113#0_0" roadsideCapacity="14" length="5"/>
    <parkingArea id="pa-107747148" lane="-107747148_0" roadsideCapacity="12" length="5"/>
    <parkingArea id="pa-107747661" lane="-107747661_0" roadsideCapacity="5" length="5"/>
    <parkingArea id="pa-1077609055" lane="-1077609055_0" roadsideCapacity="20" length="5"/>
    <parkingArea id="pa-107920913" lane="-107920913_0" roadsideCapacity="16" length="5"/>
    <parkingArea id="pa-1080290022" lane="-1080290022_0" roadsideCapacity="55" length="5"/>
    <parkingArea id="pa-108074474" lane="-108074474_0" roadsideCapacity="40" length="5"/>
    <parkingArea id="pa-108077284" lane="-108077284_0" roadsideCapacity="11" length="5"/>
    <parkingArea id="pa-108151815" lane="-108151815_0" roadsideCapacity="13" length="5"/>
    <parkingArea id="pa-108151818#0" lane="-108151818#0_0" roadsideCapacity="12" length="5"/>
    <parkingArea id="pa-108151818#1" lane="-108151818#1_0" roadsideCapacity="15" length="5"/>
    <parkingArea id="pa-108154330#0" lane="-108154330#0_0" roadsideCapacity="7" length="5"/>
    <parkingArea id="pa-108154330#1" lane="-108154330#1_0" roadsideCapacity="9" length="5"/>
    <parkingArea id="pa-108154332" lane="-108154332_0" roadsideCapacity="25" length="5"/>
    <parkingArea id="pa-108202326" lane="-108202326_0" roadsideCapacity="20" length="5"/>
    <parkingArea id="pa-108202327" lane="-108202327_0" roadsideCapacity="9" length="5"/>
    <parkingArea id="pa-108262960" lane="-108262960_0" roadsideCapacity="20" length="5"/>
    <parkingArea id="pa-108262963#0" lane="-108262963#0_0" roadsideCapacity="17" length="5"/>
    <parkingArea id="pa-108262976" lane="-108262976_0" roadsideCapacity="7" length="5"/>
    <parkingArea id="pa-108262993#0" lane="-108262993#0_0" roadsideCapacity="18" length="5"/>
    <parkingArea id="pa-108315628" lane="-108315628_0" roadsideCapacity="43" length="5"/>
    <parkingArea id="pa-108317852" lane="-108317852_0" roadsideCapacity="10" length="5"/>
    <parkingArea id="pa-108317853" lane="-108317853_0" roadsideCapacity="31" length="5"/>
    <parkingArea id="pa-108317856" lane="-108317856_0" roadsideCapacity="25" length="5"/>
    <parkingArea id="pa-108317859" lane="-108317859_0" roadsideCapacity="14" length="5"/>
    <parkingArea id="pa-108317860#0" lane="-108317860#0_0" roadsideCapacity="8" length="5"/>
    <parkingArea id="pa-108336183#0" lane="-108336183#0_0" roadsideCapacity="7" length="5"/>
    <parkingArea id="pa-108336183#1" lane="-108336183#1_0" roadsideCapacity="12" length="5"/>
    <parkingArea id="pa-108336183#2" lane="-108336183#2_0" roadsideCapacity="13" length="5"/>
    <parkingArea id="pa-108336183#3" lane="-108336183#3_0" roadsideCapacity="14" length="5"/>
    <parkingArea id="pa-108340596" lane="-108340596_0" roadsideCapacity="63" length="5"/>
    <parkingArea id="pa-108443219#0" lane="-108443219#0_0" roadsideCapacity="24" length="5"/>
    <parkingArea id="pa-108443226" lane="-108443226_0" roadsideCapacity="5" length="5"/>
    <parkingArea id="pa-108443729" lane="-108443729_0" roadsideCapacity="22" length="5"/>
    <parkingArea id="pa-108443732" lane="-108443732_0" roadsideCapacity="11" length="5"/>
    <parkingArea id="pa-108501637#0" lane="-108501637#0_0" roadsideCapacity="18" length="5"/>
    <parkingArea id="pa-108501665" lane="-108501665_0" roadsideCapacity="16" length="5"/>
    <parkingArea id="pa-108501685#0" lane="-108501685#0_0" roadsideCapacity="7" length="5"/>
    <parkingArea id="pa-108504383" lane="-108504383_0" roadsideCapacity="12" length="5"/>
    <parkingArea id="pa-108505618" lane="-108505618_0" roadsideCapacity="19" length="5"/>
    <parkingArea id="pa-108505622" lane="-108505622_0" roadsideCapacity="35" length="5"/>
    <parkingArea id="pa-108507715" lane="-108507715_0" roadsideCapacity="25" length="5"/>
    <parkingArea id="pa-108508535" lane="-108508535_0" roadsideCapacity="17" length="5"/>
    <parkingArea id="pa-108509404" lane="-108509404_0" roadsideCapacity="17" length="5"/>
    <parkingArea id="pa-109366608#0" lane="-109366608#0_0" roadsideCapacity="34" length="5"/>
    <parkingArea id="pa-109366608#1" lane="-109366608#1_0" roadsideCapacity="20" length="5"/>
    <parkingArea id="pa-109374478#0" lane="-109374478#0_0" roadsideCapacity="19" length="5"/>
    <parkingArea id="pa-109374480#0" lane="-109374480#0_0" roadsideCapacity="22" length="5"/>
    <parkingArea id="pa-109374480#1" lane="-109374480#1_0" roadsideCapacity="10" length="5"/>
    <parkingArea id="pa-109374480#2" lane="-109374480#2_0" roadsideCapacity="17" length="5"/>
    <parkingArea id="pa-109377155#0" lane="-109377155#0_0" roadsideCapacity="39" length="5"/>
    <parkingArea id="pa-109380698#1" lane="-109380698#1_0" roadsideCapacity="5" length="5"/>
    <parkingArea id="pa-109380699#0" lane="-109380699#0_0" roadsideCapacity="23" length="5"/>
    <parkingArea id="pa-109380699#1" lane="-109380699#1_0" roadsideCapacity="3" length="5"/>
    <parkingArea id="pa-109380700#0" lane="-109380700#0_0" roadsideCapacity="14" length="5"/>
    <parkingArea id="pa-109380700#2" lane="-109380700#2_0" roadsideCapacity="9" length="5"/>
    <parkingArea id="pa-109380701#0" lane="-109380701#0_0" roadsideCapacity="5" length="5"/>
    <parkingArea id="pa-109858848" lane="-109858848_0" roadsideCapacity="9" length="5"/>
    <parkingArea id="pa-109874905#2" lane="-109874905#2_0" roadsideCapacity="25" length="5"/>
    <parkingArea id="pa-11012624" lane="-11012624_0" roadsideCapacity="18" length="5"/>
    <parkingArea id="pa-110430658" lane="-110430658_0" roadsideCapacity="59" length="5"/>
    <parkingArea id="pa-11102857" lane="-11102857_0" roadsideCapacity="67" length="5"/>
    <parkingArea id="pa-111720720" lane="-111720720_0" roadsideCapacity="9" length="5"/>
    <parkingArea id="pa-111720721" lane="-111720721_0" roadsideCapacity="24" length="5"/>
    <parkingArea id="pa-111720726#0" lane="-111720726#0_0" roadsideCapacity="5" length="5"/>
    <parkingArea id="pa-111727937#2" lane="-111727937#2_0" roadsideCapacity="1" length="5"/>
    <parkingArea id="pa-111737693" lane="-111737693_0" roadsideCapacity="4" length="5"/>
    <parkingArea id="pa-112892715" lane="-112892715_0" roadsideCapacity="25" length="5"/>
    <parkingArea id="pa-112892716" lane="-112892716_0" roadsideCapacity="10" length="5"/>
    <parkingArea id="pa-112892717" lane="-112892717_0" roadsideCapacity="9" length="5"/>
    <parkingArea id="pa-113586378" lane="-113586378_0" roadsideCapacity="15" length="5"/>
    <parkingArea id="pa-113586381#0" lane="-113586381#0_0" roadsideCapacity="6" length="5"/>
    <parkingArea id="pa-113586381#1" lane="-113586381#1_0" roadsideCapacity="1" length="5"/>
    <parkingArea id="pa-113586390#0" lane="-113586390#0_0" roadsideCapacity="28" length="5"/>
    <parkingArea id="pa-113586390#1" lane="-113586390#1_0" roadsideCapacity="5" length="5"/>
    <parkingArea id="pa-113586393" lane="-113586393_0" roadsideCapacity="20" length="5"/>
    <parkingArea id="pa-113586395" lane="-113586395_0" roadsideCapacity="47" length="5"/>
    <parkingArea id="pa-113586396#0" lane="-113586396#0_0" roadsideCapacity="8" length="5"/>
    <parkingArea id="pa-113586396#1" lane="-113586396#1_0" roadsideCapacity="21" length="5"/>
    <parkingArea id="pa-113586396#2" lane="-113586396#2_0" roadsideCapacity="7" length="5"/>
    <parkingArea id="pa-113586396#3" lane="-113586396#3_0" roadsideCapacity="9" length="5"/>
    <parkingArea id="pa-113586396#4" lane="-113586396#4_0" roadsideCapacity="14" length="5"/>
    <parkingArea id="pa-113586396#5" lane="-113586396#5_0" roadsideCapacity="8" length="5"/>
    <parkingArea id="pa-113586399#0" lane="-113586399#0_0" roadsideCapacity="25" length="5"/>
    <parkingArea id="pa-113586402#0" lane="-113586402#0_0" roadsideCapacity="9" length="5"/>
    <parkingArea id="pa-113586402#1" lane="-113586402#1_0" roadsideCapacity="26" length="5"/>
    <parkingArea id="pa-113586402#2" lane="-113586402#2_0" roadsideCapacity="3" length="5"/>
    <parkingArea id="pa-113586402#3" lane="-113586402#3_0" roadsideCapacity="10" length="5"/>
    <parkingArea id="pa-113586402#4" lane="-113586402#4_0" roadsideCapacity="14" length="5"/>
    <parkingArea id="pa-113586402#5" lane="-113586402#5_0" roadsideCapacity="7" length="5"/>
    <parkingArea id="pa-113586408#0" lane="-113586408#0_0" roadsideCapacity="16" length="5"/>
    <parkingArea id="pa-113586408#1" lane="-113586408#1_0" roadsideCapacity="46" length="5"/>
    <parkingArea id="pa-113586411" lane="-113586411_0" roadsideCapacity="23" length="5"/>
    <parkingArea id="pa-113586414#0" lane="-113586414#0_0" roadsideCapacity="18" length="5"/>
    <parkingArea id="pa-113586414#1" lane="-113586414#1_0" roadsideCapacity="4" length="5"/>
    <parkingArea id="pa-113586418" lane="-113586418_0" roadsideCapacity="71" length="5"/>
    <parkingArea id="pa-113586420" lane="-113586420_0" roadsideCapacity="24" length="5"/>
    <parkingArea id="pa-113586428" lane="-113586428_0" roadsideCapacity="32" length="5"/>
    <parkingArea id="pa-113586430#0" lane="-113586430#0_0" roadsideCapacity="22" length="5"/>
    <parkingArea id="pa-113586430#1" lane="-113586430#1_0" roadsideCapacity="23" length="5"/>
    <parkingArea id="pa-113586431" lane="-113586431_0" roadsideCapacity="7" length="5"/>
    <parkingArea id="pa-114183032" lane="-114183032_0" roadsideCapacity="13" length="5"/>
    <parkingArea id="pa-114789935" lane="-114789935_0" roadsideCapacity="9" length="5"/>
    <parkingArea id="pa-115607261" lane="-115607261_0" roadsideCapacity="42" length="5"/>
    <parkingArea id="pa-115672929" lane="-115672929_0" roadsideCapacity="12" length="5"/>
    <parkingArea id="pa-115796539" lane="-115796539_0" roadsideCapacity="30" length="5"/>
    <parkingArea id="pa-115798779#0" lane="-115798779#0_0" roadsideCapacity="29" length="5"/>
    <parkingArea id="pa-115798784#0" lane="-115798784#0_0" roadsideCapacity="10" length="5"/>
    <parkingArea id="pa-115798787#0" lane="-115798787#0_0" roadsideCapacity="15" length="5"/>
    <parkingArea id="pa-115915280#0" lane="-115915280#0_0" roadsideCapacity="19" length="5"/>
    <parkingArea id="pa-115915280#1" lane="-115915280#1_0" roadsideCapacity="22" length="5"/>
    <parkingArea id="pa-115915281" lane="-115915281_0" roadsideCapacity="36" length="5"/>
    <parkingArea id="pa-116049438" lane="-116049438_0" roadsideCapacity="16" length="5"/>
    <parkingArea id="pa-116049439#0" lane="-116049439#0_0" roadsideCapacity="13" length="5"/>
    <parkingArea id="pa-116049439#1" lane="-116049439#1_0" roadsideCapacity="11" length="5"/>
    <parkingArea id="pa-116049442" lane="-116049442_0" roadsideCapacity="16" length="5"/>
    <parkingArea id="pa-116049443#0" lane="-116049443#0_0" roadsideCapacity="11" length="5"/>
    <parkingArea id="pa-116049443#1" lane="-116049443#1_0" roadsideCapacity="15" length="5"/>
    <parkingArea id="pa-116049443#2" lane="-116049443#2_0" roadsideCapacity="16" length="5"/>
    <parkingArea id="pa-116049443#3" lane="-116049443#3_0" roadsideCapacity="30" length="5"/>
    <parkingArea id="pa-116049444#0" lane="-116049444#0_0" roadsideCapacity="17" length="5"/>
    <parkingArea id="pa-116049444#1" lane="-116049444#1_0" roadsideCapacity="20" length="5"/>
    <parkingArea id="pa-116049788#0" lane="-116049788#0_0" roadsideCapacity="8" length="5"/>
    <parkingArea id="pa-116085111" lane="-116085111_0" roadsideCapacity="16" length="5"/>
    <parkingArea id="pa-116400265" lane="-116400265_0" roadsideCapacity="33" length="5"/>
    <parkingArea id="pa-116400267" lane="-116400267_0" roadsideCapacity="18" length="5"/>
    <parkingArea id="pa-116585422" lane="-116585422_0" roadsideCapacity="37" length="5"/>
    <parkingArea id="pa-116609541" lane="-116609541_0" roadsideCapacity="16" length="5"/>