<nodes xmlns:xsi="http://www.w3.org/2001/XMLSchema-instance" version="1.20" xsi:noNamespaceSchemaLocation="http://sumo.dlr.de/xsd/nodes_file.xsd">
    <location netOffset="-248979.65,-6603560.62" convBoundary="129940.27,69641.65,143707.04,80727.82" origBoundary="22.487275,59.564699,26.767787,61.363497" projParameter="+proj=utm +zone=35 +ellps=WGS84 +datum=WGS84 +units=m +no_defs" />

    <node id="1000094076" x="141539.52" y="75241.81" type="priority" />
    <node id="100239188" x="140472.24" y="76312.27" type="priority" />
    <node id="1004141631" x="138499.65" y="73669.54" type="priority" />
    <node id="1005650212" x="134659.74" y="74242.91" type="priority" />
    <node id="1008641433" x="137051.55" y="72834.72" type="priority" />
    <node id="1011769590" x="138878.85" y="72541.86" type="priority" />
    <node id="1011920744" x="138093.03" y="70551.82" type="priority" />
    <node id="1011941616" x="137668.33" y="70852.44" type="priority" />
    <node id="1013761642" x="138735.09" y="70389.88" type="priority" />
    <node id="1013761838" x="138399.70" y="70444.80" type="priority" />
    <node id="1015295124" x="131843.92" y="75588.22" type="priority" />
    <node id="1015295140" x="131847.11" y="75840.90" type="priority" />
    <node id="1015302541" x="131963.84" y="76050.42" type="right_before_left" />
    <node id="1015302563" x="132014.40" y="76006.48" type="priority" />
    <node id="1015634158" x="134002.52" y="73028.71" type="priority" />
    <node id="1015745808" x="131669.94" y="75760.06" type="right_before_left" />
    <node id="1015764744" x="131453.91" y="76177.46" type="priority" />
    <node id="1015876711" x="131334.10" y="75593.96" type="priority" />
    <node id="1016001591" x="131825.72" y="76987.24" type="priority" />
    <node id="1016001600" x="131823.13" y="77002.94" type="priority" />
    <node id="1016001621" x="132412.43" y="77347.28" type="priority" />
    <node id="1016087153" x="137631.91" y="70132.50" type="right_before_left" />
    <node id="1016087251" x="137989.77" y="70503.05" type="priority" />
    <node id="1016087825" x="137846.04" y="70341.33" type="right_before_left" />
    <node id="1017052157" x="137413.74" y="70107.90" type="priority" />
    <node id="1017984734" x="137744.39" y="70099.99" type="priority" />
    <node id="1017984818" x="137786.66" y="70112.01" type="priority" />
    <node id="1018189824" x="134659.84" y="74570.48" type="priority" />
    <node id="1018582834" x="139328.55" y="77577.91" type="priority" />
    <node id="1019939159" x="142014.25" y="79710.21" type="right_before_left" />
    <node id="1020312029" x="133630.62" y="72110.93" type="priority" />
    <node id="1020312093" x="133640.40" y="72170.26" type="priority" />
    <node id="1020312106" x="133587.89" y="72188.80" type="priority" />
    <node id="1023838779" x="132224.95" y="78264.38" type="priority" />
    <node id="1023838831" x="131672.60" y="78766.07" type="priority" />
    <node id="1023839193" x="132296.04" y="78554.69" type="priority" />
    <node id="1023839437" x="131684.31" y="78763.71" type="priority" />
    <node id="1023840020" x="132039.19" y="78570.16" type="priority" />
    <node id="1024828834" x="139988.60" y="78959.97" type="priority" />
    <node id="1024828840" x="140927.79" y="79462.09" type="priority" />
    <node id="1024863504" x="139965.00" y="79836.69" type="priority" />
    <node id="1024900889" x="139606.92" y="79756.80" type="priority" />
    <node id="1025013587" x="133794.85" y="75509.99" type="priority" />
    <node id="1029133898" x="136526.18" y="71698.02" type="priority" />
    <node id="1029135737" x="136594.85" y="71475.23" type="priority" />
    <node id="1035583601" x="137108.62" y="73022.15" type="priority" />
    <node id="1036468063" x="137214.74" y="73090.52" type="priority" />
    <node id="1038148525" x="134968.75" y="70835.82" type="priority" />
    <node id="1038148526" x="135242.54" y="70731.91" type="traffic_light" tl="joinedS_1" tlType="actuated" controlledInner="89555197" />
    <node id="1038148530" x="135237.50" y="70718.63" type="priority" />
    <node id="1038566157" x="131159.01" y="78581.07" type="right_before_left" />
    <node id="1039762992" x="132321.51" y="75976.87" type="priority" />
    <node id="1039962233" x="141460.10" y="76045.67" type="priority" />
    <node id="1039962240" x="141406.87" y="76330.61" type="priority" />
    <node id="1044882331" x="132603.62" y="76258.00" type="priority" />
    <node id="1044882335" x="132540.12" y="76223.86" type="right_before_left" />
    <node id="1083003520" x="143390.52" y="78813.20" type="priority" />
    <node id="1091152079" x="141592.19" y="77423.84" type="priority" />
    <node id="1091222921" x="142158.29" y="77040.65" type="priority" />
    <node id="1091222925" x="142088.51" y="77241.83" type="priority" />
    <node id="1091353831" x="143170.51" y="76921.64" type="priority" />
    <node id="1091353837" x="143106.44" y="76900.70" type="priority" />
    <node id="1091353839" x="143007.67" y="76856.40" type="priority" />
    <node id="1092393626" x="130719.64" y="78101.75" type="priority" />
    <node id="1092393818" x="130687.14" y="78255.13" type="priority" />
    <node id="1092393858" x="130640.98" y="78201.51" type="traffic_light" tl="joinedS_2" tlType="actuated" controlledInner="28679143#0" />
    <node id="1092393893" x="130921.70" y="78379.40" type="priority" />
    <node id="1093781047" x="133033.35" y="72782.62" type="priority" />
    <node id="1093781092" x="133025.09" y="72795.09" type="priority" />
    <node id="1093786809" x="133495.50" y="72835.64" type="priority" />
    <node id="1094008112" x="133255.01" y="73027.28" type="priority" />
    <node id="1094109746" x="133341.43" y="72017.52" type="right_before_left" />
    <node id="1096077923" x="137365.39" y="71726.81" type="priority" />
    <node id="1096134971" x="135058.83" y="71680.24" type="priority" />
    <node id="1096645939" x="139464.45" y="73916.17" type="priority" />
    <node id="1098221762" x="143268.27" y="76959.98" type="priority" />
    <node id="1098243907" x="143476.00" y="78790.16" type="priority" />
    <node id="1098243910" x="142820.43" y="79008.61" type="priority" />
    <node id="1098864340" x="141422.87" y="79486.45" type="priority" />
    <node id="1098865201" x="140759.51" y="79222.23" type="priority" />
    <node id="1098870953" x="139363.60" y="79010.19" type="priority" />
    <node id="1099310161" x="138952.55" y="79122.15" type="priority" />
    <node id="1099502919" x="141437.21" y="75642.42" type="priority" />
    <node id="1104344744" x="140177.06" y="78064.42" type="priority" />
    <node id="1104344763" x="139380.09" y="78037.12" type="priority" />
    <node id="1105630777" x="140950.98" y="77035.55" type="priority" />
    <node id="1105654432" x="141401.85" y="78084.72" type="priority" />
    <node id="1105654433" x="141360.02" y="78035.22" type="priority" />
    <node id="1106094921" x="141856.88" y="75039.02" type="right_before_left" />
    <node id="1106100863" x="141435.31" y="75181.78" type="priority" />
    <node id="1106185627" x="141082.58" y="74508.71" type="priority" />
    <node id="1106841860" x="136148.04" y="71398.41" type="priority" />
    <node id="1107341314" x="136364.72" y="75642.39" type="priority" />
    <node id="1111362247" x="134538.01" y="74660.08" type="right_before_left" />
    <node id="1111389122" x="136121.34" y="72683.06" type="priority" />
    <node id="111524351" x="133910.13" y="73568.73" type="priority" />
    <node id="111574493" x="133769.08" y="71664.69" type="priority" />
    <node id="1117073355" x="143028.29" y="79306.78" type="priority" />
    <node id="1117796211" x="142631.42" y="79071.57" type="priority" />
    <node id="1117796229" x="142785.91" y="79026.21" type="priority" />
    <node id="1117810529" x="142505.57" y="78327.20" type="priority" />
    <node id="1118495613" x="133341.27" y="72079.73" type="priority" />
    <node id="1120059359" x="131996.51" y="77144.91" type="priority" />
    <node id="1120059360" x="132015.37" y="77122.19" type="priority" />
    <node id="1120059363" x="131849.30" y="76826.99" type="priority" />
    <node id="1121644069" x="136204.43" y="75550.88" type="priority" />
    <node id="1121644099" x="136207.67" y="75572.42" type="priority" />
    <node id="1121817936" x="142852.99" y="76495.04" type="priority" />
    <node id="1123133512" x="138516.14" y="75710.01" type="priority" />
    <node id="1123297269" x="138185.03" y="75576.19" type="priority" />
    <node id="1123335940" x="132428.08" y="76354.90" type="priority" />
    <node id="1124026367" x="136448.14" y="77940.03" type="priority" />
    <node id="112516022" x="132042.46" y="78509.97" type="right_before_left" />
    <node id="112516831" x="131898.99" y="78827.09" type="priority" />
    <node id="112517540" x="131816.82" y="78562.81" type="right_before_left" />
    <node id="112518335" x="131972.39" y="78591.42" type="priority" />
    <node id="113836720" x="132710.01" y="74673.87" type="right_before_left" />
    <node id="1139867710" x="141901.69" y="77350.03" type="priority" />
    <node id="114955433" x="138286.43" y="70666.47" type="priority" />
    <node id="114956162" x="138204.16" y="70657.97" type="priority" />
    <node id="1162329339" x="142959.78" y="79678.33" type="priority" />
    <node id="1165812869" x="142566.97" y="75003.14" type="priority" />
    <node id="1165813400" x="142582.68" y="75398.71" type="priority" />
    <node id="1165942191" x="142401.42" y="75467.16" type="priority" />
    <node id="1180669585" x="133576.14" y="72493.92" type="priority" />
    <node id="1181332839" x="132715.66" y="75696.39" type="priority" />
    <node id="1181332861" x="132538.67" y="75896.77" type="priority" />
    <node id="1215375991" x="141394.76" y="70921.58" type="priority" />
    <node id="1215376218" x="141261.65" y="70818.18" type="priority" />
    <node id="1233419681" x="131075.08" y="76359.80" type="priority" />
    <node id="1234014136" x="142223.68" y="70910.56" type="priority" />
    <node id="1234014160" x="142209.68" y="70918.15" type="priority" />
    <node id="1234167891" x="140744.95" y="74745.18" type="priority" />
    <node id="1237697761" x="140142.51" y="70217.54" type="priority" />
    <node id="1237697847" x="140112.04" y="70242.33" type="right_before_left" />
    <node id="1237698482" x="140452.62" y="70017.92" type="priority" />
    <node id="1237698622" x="140198.96" y="70161.03" type="priority" />
    <node id="1237790000" x="142743.63" y="71092.55" type="right_before_left" />
    <node id="1239369934" x="141882.45" y="76075.58" type="priority" />
    <node id="1240664219" x="139992.01" y="75111.44" type="priority" />
    <node id="1240664230" x="139997.57" y="75113.33" type="priority" />
    <node id="1241267325" x="141170.21" y="74503.10" type="right_before_left" />
    <node id="1241771338" x="142088.68" y="75593.93" type="priority" />
    <node id="1241771345" x="142049.69" y="75573.65" type="priority" />
    <node id="1241771352" x="142013.74" y="75554.87" type="priority" />
    <node id="1243024763" x="140507.56" y="70241.45" type="right_before_left" />
    <node id="1243337047" x="131437.63" y="77493.84" type="priority" />
    <node id="125515292" x="138557.11" y="78280.01" type="priority" />
    <node id="1256602422" x="131190.88" y="76166.24" type="priority" />
    <node id="125662375" x="133915.02" y="79670.78" type="priority" />
    <node id="1272220847" x="142891.32" y="73782.45" type="priority" />
    <node id="1272863621" x="136534.09" y="71095.41" type="priority" />
    <node id="1278062765" x="141435.90" y="74501.50" type="right_before_left" />
    <node id="1287811161" x="133147.90" y="70687.72" type="priority" />
    <node id="1287931021" x="138005.30" y="77355.33" type="priority" />
    <node id="1287931023" x="138263.30" y="76921.66" type="right_before_left" />
    <node id="1287931036" x="138132.60" y="77379.39" type="right_before_left" />
    <node id="1287931049" x="137987.69" y="77082.62" type="priority" />
    <node id="1287931053" x="138003.31" y="77312.35" type="priority" />
    <node id="1287931072" x="138258.31" y="76791.94" type="priority" />
    <node id="1287931080" x="138285.05" y="77093.58" type="priority" />
    <node id="1287931084" x="138151.86" y="76671.10" type="right_before_left" />
    <node id="1287931087" x="138299.65" y="77202.95" type="right_before_left" />
    <node id="1287931172" x="137989.58" y="77041.26" type="priority" />
    <node id="1287931188" x="138717.77" y="77032.67" type="priority" />
    <node id="1287931202" x="138154.81" y="76939.47" type="right_before_left" />
    <node id="1287931204" x="138086.87" y="77388.07" type="right_before_left" />
    <node id="1287931214" x="138125.53" y="77454.98" type="right_before_left" />
    <node id="1287931217" x="138165.87" y="76882.25" type="priority" />
    <node id="1287931223" x="137990.40" y="77218.22" type="priority" />
    <node id="1287931238" x="138117.74" y="76737.77" type="priority" />
    <node id="1287931253" x="138147.18" y="77491.85" type="right_before_left" />
    <node id="1287931265" x="138022.32" y="77524.33" type="right_before_left" />
    <node id="1287931266" x="138148.40" y="77215.73" type="right_before_left" />
    <node id="1287931269" x="138311.51" y="77303.43" type="right_before_left" />
    <node id="1287931276" x="138127.01" y="76721.97" type="right_before_left" />
    <node id="1287931294" x="138149.88" y="77144.39" type="right_before_left" />
    <node id="1287931300" x="138149.97" y="77083.09" type="right_before_left" />
    <node id="1287931301" x="138288.96" y="77126.55" type="right_before_left" />
    <node id="1287931309" x="138319.31" y="77362.19" type="right_before_left" />
    <node id="1287931322" x="138144.34" y="77315.09" type="right_before_left" />
    <node id="1294839607" x="134270.02" y="77823.25" type="priority" />
    <node id="1300978342" x="141556.10" y="75252.95" type="priority" />
    <node id="1306928416" x="135185.94" y="74534.00" type="priority" />
    <node id="1307631381" x="139470.60" y="74539.78" type="right_before_left" />
    <node id="1307782198" x="139572.62" y="74448.47" type="priority" />
    <node id="1308303461" x="139538.66" y="74742.17" type="priority" />
    <node id="1308304835" x="139694.39" y="74249.40" type="right_before_left" />
    <node id="1309633791" x="136916.04" y="76508.91" type="right_before_left" />
    <node id="1309633792" x="137058.09" y="76519.38" type="priority" />
    <node id="1309633795" x="137134.48" y="76532.79" type="priority" />
    <node id="1309633865" x="136788.54" y="76830.26" type="right_before_left" />
    <node id="1309633866" x="136977.24" y="76867.68" type="right_before_left" />
    <node id="1309633868" x="136765.52" y="76943.24" type="right_before_left" />
    <node id="1309633870" x="136955.56" y="76979.49" type="right_before_left" />
    <node id="1309633874" x="137089.41" y="76993.50" type="right_before_left" />
    <node id="1309636534" x="134124.55" y="75996.35" type="priority" />
    <node id="1309636537" x="134131.72" y="76034.01" type="priority" />
    <node id="1309636542" x="134080.66" y="76360.22" type="priority" />
    <node id="1310958547" x="133161.56" y="77176.59" type="priority" />
    <node id="1311836875" x="135223.73" y="76061.37" type="priority" />
    <node id="131271490-AddedOnRampNode" x="137199.63" y="75630.66" type="priority" />
    <node id="1315501495" x="142035.26" y="71070.95" type="priority" />
    <node id="1317234395" x="130677.65" y="78232.25" type="priority" />
    <node id="1317234397" x="131854.60" y="78639.52" type="priority" />
    <node id="1317234398" x="131557.21" y="78679.45" type="priority" />
    <node id="1319121893" x="137493.51" y="76268.56" type="right_before_left" />
    <node id="1319121895" x="137515.12" y="76274.28" type="priority" />
    <node id="1319121902" x="137549.00" y="76296.79" type="priority" />
    <node id="1319121903" x="137678.28" y="76305.86" type="priority" />
    <node id="1319121905" x="137813.37" y="76316.20" type="priority" />
    <node id="1319121921" x="137764.02" y="76324.04" type="priority" />
    <node id="1319121925" x="137461.45" y="76381.80" type="right_before_left" />
    <node id="1319121930" x="137663.01" y="76404.02" type="right_before_left" />
    <node id="1319121950" x="137634.38" y="76435.08" type="right_before_left" />
    <node id="1319121952" x="137741.13" y="76446.97" type="right_before_left" />
    <node id="1319121955" x="137440.33" y="76492.34" type="priority" />
    <node id="1319121976" x="137884.51" y="76502.84" type="right_before_left" />
    <node id="1319121989" x="137842.82" y="76571.23" type="right_before_left" />
    <node id="1319122004" x="138043.09" y="76608.58" type="priority" />
    <node id="1319122008" x="137587.99" y="76633.03" type="right_before_left" />
    <node id="1319122026" x="138035.03" y="76667.38" type="priority" />
    <node id="1319122030" x="137824.16" y="76678.37" type="right_before_left" />
    <node id="1319122119" x="137641.65" y="76751.42" type="right_before_left" />
    <node id="1319122131" x="137808.42" y="76752.18" type="right_before_left" />
    <node id="1319122137" x="137724.33" y="76765.52" type="right_before_left" />
    <node id="1319122142" x="137568.50" y="76781.38" type="priority" />
    <node id="1319122144" x="137633.46" y="76795.34" type="priority" />
    <node id="131980" x="132265.81" y="70364.09" type="priority" />
    <node id="132103" x="132842.58" y="70593.11" type="priority" />
    <node id="132105" x="133127.08" y="70678.24" type="priority" />
    <node id="132111" x="133344.35" y="71090.68" type="priority" />
    <node id="1324407450" x="137503.19" y="76195.82" type="priority" />
    <node id="1324407452" x="138218.68" y="76193.75" type="priority" />
    <node id="1324407459" x="137563.75" y="76227.49" type="priority" />
    <node id="1324407460" x="137728.38" y="76226.57" type="priority" />
    <node id="1324407461" x="137442.36" y="76250.68" type="priority" />
    <node id="1324407468" x="138352.90" y="76238.17" type="right_before_left" />
    <node id="1324407479" x="138450.50" y="76249.89" type="right_before_left" />
    <node id="1324407485" x="138150.03" y="76279.66" type="priority" />
    <node id="1324407500" x="138116.17" y="76319.60" type="priority" />
    <node id="1324407511" x="138067.02" y="76406.25" type="priority" />
    <node id="1324407514" x="138242.07" y="76407.74" type="right_before_left" />
    <node id="1324407518" x="138397.90" y="76417.11" type="priority" />
    <node id="1324407538" x="138055.20" y="76509.71" type="priority" />
    <node id="1324407539" x="138214.90" y="76508.56" type="right_before_left" />
    <node id="1324407617" x="137457.95" y="76714.82" type="priority" />
    <node id="1324407619" x="138008.94" y="76710.91" type="priority" />
    <node id="1324407622" x="137578.13" y="76738.32" type="right_before_left" />
    <node id="1324407645" x="137727.03" y="76827.56" type="priority" />
    <node id="1324407675" x="137855.83" y="76914.76" type="priority" />
    <node id="1324407676" x="137622.55" y="76932.77" type="priority" />
    <node id="1324407677" x="137699.32" y="76946.94" type="right_before_left" />
    <node id="1324420440" x="138835.45" y="75533.03" type="priority" />
    <node id="1324420598" x="138896.97" y="75764.84" type="priority" />
    <node id="1324420617" x="138332.33" y="75805.33" type="priority" />
    <node id="1324420678" x="138183.97" y="75887.24" type="priority" />
    <node id="1324420684" x="138292.31" y="75901.18" type="priority" />
    <node id="1324420686" x="138683.41" y="75898.25" type="right_before_left" />
    <node id="1324420728" x="138273.27" y="75987.79" type="priority" />
    <node id="1324420730" x="138671.44" y="75978.60" type="right_before_left" />
    <node id="1324420776" x="138650.66" y="76039.60" type="right_before_left" />
    <node id="1324420841" x="138619.22" y="76118.09" type="right_before_left" />
    <node id="1324420888" x="138591.43" y="76185.18" type="right_before_left" />
    <node id="1324420979" x="138747.84" y="76352.36" type="priority" />
    <node id="1324661232" x="142168.22" y="71167.90" type="priority" />
    <node id="1324709496" x="137405.63" y="75301.56" type="right_before_left" />
    <node id="1324709514" x="137555.57" y="75360.75" type="right_before_left" />
    <node id="1324709548" x="137420.32" y="75660.98" type="priority" />
    <node id="1324725096" x="137603.82" y="75443.04" type="right_before_left" />
    <node id="1324725104" x="137727.19" y="75500.71" type="right_before_left" />
    <node id="1324725107" x="137560.88" y="75551.22" type="right_before_left" />
    <node id="1324725122" x="137845.36" y="75766.81" type="right_before_left" />
    <node id="1324733152" x="137627.35" y="75385.85" type="priority" />
    <node id="1324733161" x="137973.59" y="75507.11" type="priority" />
    <node id="1324733163" x="137486.86" y="75533.24" type="priority" />
    <node id="1324733168" x="137459.59" y="75598.69" type="right_before_left" />
    <node id="1324733169" x="137806.72" y="75873.76" type="priority" />
    <node id="1324736444" x="138159.00" y="75210.74" type="priority" />
    <node id="1324736455" x="138277.68" y="75283.70" type="right_before_left" />
    <node id="1324736459" x="138085.30" y="75320.05" type="priority" />
    <node id="1324736466" x="138160.66" y="75355.78" type="right_before_left" />
    <node id="1324736467" x="138250.80" y="75361.42" type="right_before_left" />
    <node id="1324736472" x="138323.62" y="75411.15" type="priority" />
    <node id="1324736476" x="138367.76" y="75482.39" type="right_before_left" />
    <node id="1324736480" x="138245.82" y="75503.70" type="priority" />
    <node id="1324739625" x="137685.90" y="75241.35" type="right_before_left" />
    <node id="1324739626" x="138354.61" y="75225.78" type="priority" />
    <node id="1324739629" x="138567.65" y="75298.75" type="right_before_left" />
    <node id="1324739632" x="138455.54" y="75325.72" type="priority" />
    <node id="1324739633" x="138631.15" y="75368.34" type="right_before_left" />
    <node id="1324739634" x="138700.31" y="75446.14" type="right_before_left" />
    <node id="1324739638" x="138441.51" y="75529.06" type="priority" />
    <node id="1324739640" x="138499.96" y="75553.64" type="right_before_left" />
    <node id="1324739642" x="138430.21" y="75573.09" type="priority" />
    <node id="1324739646" x="138578.02" y="75592.60" type="right_before_left" />
    <node id="1324739650" x="138675.35" y="75604.80" type="right_before_left" />
    <node id="1324777020" x="137956.92" y="75013.19" type="priority" />
    <node id="1324777037" x="137766.03" y="75086.44" type="right_before_left" />
    <node id="1324777052" x="138372.91" y="75111.03" type="priority" />
    <node id="1324777061" x="137846.95" y="75141.60" type="right_before_left" />
    <node id="1324777067" x="138395.58" y="75131.39" type="priority" />
    <node id="1324777071" x="138262.42" y="75134.21" type="right_before_left" />
    <node id="1324777086" x="138300.28" y="75173.11" type="right_before_left" />
    <node id="1324777100" x="137934.79" y="75206.93" type="right_before_left" />
    <node id="1324788987" x="137975.40" y="74939.31" type="right_before_left" />
    <node id="1324788991" x="138159.11" y="74987.13" type="right_before_left" />
    <node id="1324788994" x="138137.18" y="75066.67" type="priority" />
    <node id="1324797156" x="137916.51" y="74752.68" type="right_before_left" />
    <node id="1324797162" x="138046.46" y="74805.20" type="right_before_left" />
    <node id="1324797169" x="137692.31" y="74856.32" type="priority" />
    <node id="1324797175" x="137891.19" y="74873.34" type="right_before_left" />
    <node id="1324797176" x="137971.59" y="74881.40" type="right_before_left" />
    <node id="1324797179" x="137844.22" y="74916.29" type="priority" />
    <node id="1324879783" x="137267.36" y="74746.62" type="right_before_left" />
    <node id="1324879811" x="137492.01" y="74900.86" type="right_before_left" />
    <node id="1324918300" x="137453.30" y="74518.53" type="priority" />
    <node id="1324918333" x="137238.47" y="74617.16" type="priority" />
    <node id="1324918339" x="137555.49" y="74609.61" type="priority" />
    <node id="1324918384" x="137274.39" y="74624.11" type="right_before_left" />
    <node id="1324918401" x="137371.58" y="74644.81" type="right_before_left" />
    <node id="1324918407" x="137474.96" y="74666.73" type="right_before_left" />
    <node id="1324918417" x="137360.98" y="74700.48" type="priority" />
    <node id="1324918424" x="137539.20" y="74759.56" type="right_before_left" />
    <node id="1324918430" x="137452.31" y="74786.62" type="right_before_left" />
    <node id="1324918435" x="137506.42" y="74799.99" type="right_before_left" />
    <node id="1324960254" x="137406.75" y="74351.85" type="priority" />
    <node id="1324960300" x="137519.83" y="74477.55" type="priority" />
    <node id="1324960312" x="137418.22" y="74486.44" type="priority" />
    <node id="1324960358" x="137649.05" y="74538.55" type="right_before_left" />
    <node id="1324960384" x="137625.73" y="74579.98" type="right_before_left" />
    <node id="1324960395" x="137579.02" y="74633.66" type="priority" />
    <node id="1324960401" x="137715.60" y="74637.59" type="right_before_left" />
    <node id="1324960442" x="137671.54" y="74738.70" type="priority" />
    <node id="1325001938" x="136859.49" y="74344.10" type="right_before_left" />
    <node id="1325001950" x="136993.33" y="74371.99" type="right_before_left" />
    <node id="1325001958" x="137074.50" y="74388.97" type="right_before_left" />
    <node id="1325001974" x="137144.28" y="74403.30" type="priority" />
    <node id="1325001991" x="136963.99" y="74496.96" type="right_before_left" />
    <node id="1325001992" x="137052.90" y="74490.12" type="right_before_left" />
    <node id="1325001994" x="137099.14" y="74497.89" type="priority" />
    <node id="1325001995" x="136949.69" y="74559.19" type="right_before_left" />
    <node id="1325001996" x="137035.73" y="74576.34" type="right_before_left" />
    <node id="1325002008" x="136926.08" y="74663.29" type="priority" />
    <node id="1325002049" x="137001.55" y="74810.70" type="priority" />
    <node id="1325022555" x="136869.59" y="74292.81" type="priority" />
    <node id="1325022604" x="136801.08" y="74484.82" type="right_before_left" />
    <node id="1325022633" x="136833.47" y="74593.67" type="right_before_left" />
    <node id="1325022643" x="136863.04" y="74715.41" type="right_before_left" />
    <node id="1325052121" x="136864.46" y="75208.99" type="priority" />
    <node id="1325594249" x="132291.67" y="79243.02" type="priority" />
    <node id="1327388940" x="140877.18" y="70513.22" type="priority" />
    <node id="1329534424" x="136668.51" y="75978.28" type="priority" />
    <node id="1329534440" x="136533.99" y="75985.21" type="priority" />
    <node id="1329534443" x="136439.11" y="75996.88" type="priority" />
    <node id="1329534449" x="136622.80" y="76016.66" type="priority" />
    <node id="1329534460" x="136843.99" y="76013.96" type="right_before_left" />
    <node id="1329534464" x="136342.69" y="76047.59" type="priority" />
    <node id="1329534472" x="136425.99" y="76064.07" type="right_before_left" />
    <node id="1329534481" x="136519.88" y="76081.81" type="right_before_left" />
    <node id="1329534486" x="136606.57" y="76098.62" type="right_before_left" />
    <node id="1329534490" x="137239.83" y="76088.89" type="right_before_left" />
    <node id="1329534496" x="137353.61" y="76115.74" type="priority" />
    <node id="1329534504" x="136324.55" y="76159.42" type="traffic_light" tl="1329534504" tlType="actuated" />
    <node id="1329534509" x="136622.41" y="76216.77" type="priority" />
    <node id="1329534519" x="137214.80" y="76215.15" type="right_before_left" />
    <node id="1329534522" x="136826.63" y="76256.40" type="priority" />
    <node id="1329534543" x="137199.13" y="76330.59" type="priority" />
    <node id="1333336024" x="141999.92" y="75144.25" type="priority" />
    <node id="1333336069" x="142042.18" y="75308.83" type="priority" />
    <node id="1334015001" x="142254.02" y="75357.74" type="priority" />
    <node id="1336069737" x="136306.64" y="76269.37" type="priority" />
    <node id="1336069747" x="136486.72" y="76305.17" type="right_before_left" />
    <node id="1336069752" x="136601.28" y="76328.80" type="right_before_left" />
    <node id="1336069755" x="136936.84" y="76396.08" type="right_before_left" />
    <node id="1336069760" x="136463.52" y="76420.21" type="right_before_left" />
    <node id="1336069767" x="137075.38" y="76422.74" type="right_before_left" />
    <node id="1336069774" x="136446.73" y="76549.88" type="priority" />
    <node id="1336084236" x="135954.18" y="76667.05" type="right_before_left" />
    <node id="1336084237" x="136196.25" y="76684.08" type="right_before_left" />
    <node id="1336084238" x="136189.43" y="76712.86" type="priority" />
    <node id="1336084239" x="136246.26" y="76723.23" type="right_before_left" />
    <node id="1338434356" x="137687.92" y="77045.70" type="right_before_left" />
    <node id="1338434357" x="137491.99" y="77128.35" type="priority" />
    <node id="1338434358" x="137673.64" y="77136.84" type="right_before_left" />
    <node id="1338434359" x="137988.79" y="77154.96" type="priority" />
    <node id="1338434360" x="137480.72" y="77219.45" type="priority" />
    <node id="1338434361" x="137660.83" y="77222.77" type="right_before_left" />
    <node id="1338434362" x="137994.47" y="77261.89" type="priority" />
    <node id="1338434364" x="137883.92" y="77278.73" type="right_before_left" />
    <node id="1338434367" x="137518.59" y="77306.62" type="priority" />
    <node id="1338434368" x="137649.14" y="77303.31" type="right_before_left" />