<?xml version="1.0" encoding="UTF-8"?>

<!-- generated on 2024-07-17 09:38:16 by Eclipse SUMO netconvert Version 1.20.0
<configuration xmlns:xsi="http://www.w3.org/2001/XMLSchema-instance" xsi:noNamespaceSchemaLocation="http://sumo.dlr.de/xsd/netconvertConfiguration.xsd">

    <input>
        <sumo-net-file value="area3_connected.net.xml"/>
    </input>

    <output>
        <plain-output-prefix value="plain"/>
        <output.street-names value="true"/>
    </output>

    <processing>
        <geometry.min-radius.fix.railways value="false"/>
        <geometry.max-grade.fix value="false"/>
        <offset.disable-normalization value="true"/>
        <lefthand value="0"/>
    </processing>

    <junctions>
        <no-turnarounds value="true"/>
        <junctions.corner-detail value="5"/>
        <junctions.limit-turn-speed value="5.50"/>
        <rectangular-lane-cut value="0"/>
    </junctions>

    <pedestrian>
        <walkingareas value="0"/>
    </pedestrian>

</configuration>
-->

<tlLogics version="1.20" xmlns:xsi="http://www.w3.org/2001/XMLSchema-instance" xsi:noNamespaceSchemaLocation="http://sumo.dlr.de/xsd/tllogic_file.xsd">
    <tlLogic id="1329534504" type="actuated" programID="0" offset="0">
        <phase duration="38" state="rrrrGGggrrrrGGgg" minDur="5" maxDur="50"/>
        <phase duration="3"  state="rrrryyggrrrryygg"/>
        <phase duration="6"  state="rrrrrrGGrrrrrrGG" minDur="5" maxDur="50"/>
        <phase duration="3"  state="rrrrrryyrrrrrryy"/>
        <phase duration="37" state="GGggrrrrGGggrrrr" minDur="5" maxDur="50"/>
        <phase duration="3"  state="yyyyrrrryyyyrrrr"/>
        <param key="jam-threshold" value="30"/>
    </tlLogic>
    <tlLogic id="1702737044" type="actuated" programID="0" offset="0">
        <phase duration="82" state="GG" minDur="5" maxDur="50"/>
        <phase duration="3"  state="yy"/>
        <phase duration="5"  state="rr"/>
        <param key="jam-threshold" value="30"/>
    </tlLogic>
    <tlLogic id="175522761" type="actuated" programID="0" offset="0">
        <phase duration="42" state="GGGgrrrrGGGgrrrr" minDur="5" maxDur="50"/>
        <phase duration="3"  state="yyyyrrrryyyyrrrr"/>
        <phase duration="42" state="rrrrGGggrrrrGGgg" minDur="5" maxDur="50"/>
        <phase duration="3"  state="rrrryyyyrrrryyyy"/>
        <param key="jam-threshold" value="30"/>
    </tlLogic>
    <tlLogic id="33291549" type="actuated" programID="0" offset="0">
        <phase duration="82" state="GG" minDur="5" maxDur="50"/>
        <phase duration="3"  state="yy"/>
        <phase duration="5"  state="rr"/>
        <param key="jam-threshold" value="30"/>
    </tlLogic>
    <tlLogic id="GS_1516053620" type="actuated" programID="0" offset="0">
        <phase duration="42" state="GgGrr" minDur="5" maxDur="50"/>
        <phase duration="3"  state="yyyrr"/>
        <phase duration="42" state="rrGGG" minDur="5" maxDur="50"/>
        <phase duration="3"  state="rryyy"/>
        <param key="jam-threshold" value="30"/>
    </tlLogic>
    <tlLogic id="GS_152670347" type="actuated" programID="0" offset="0">
        <phase duration="38" state="GggrrrGG" minDur="5" maxDur="50"/>
        <phase duration="3"  state="yggrrryy"/>
        <phase duration="6"  state="GGGrrrrr" minDur="5" maxDur="50"/>
        <phase duration="3"  state="yyyrrrrr"/>
        <phase duration="37" state="rrrGGgGr" minDur="5" maxDur="50"/>
        <phase duration="3"  state="rrryyyyr"/>
        <param key="jam-threshold" value="30"/>
    </tlLogic>
    <tlLogic id="GS_1539765233" type="actuated" programID="0" offset="0">
        <phase duration="42" state="GgGrrr" minDur="5" maxDur="50"/>
        <phase duration="3"  state="yyyrrr"/>
        <phase duration="42" state="rrGGGG" minDur="5" maxDur="50"/>
        <phase duration="3"  state="rryyyy"/>
        <param key="jam-threshold" value="30"/>
    </tlLogic>
    <tlLogic id="GS_1539765253" type="actuated" programID="0" offset="0">
        <phase duration="42" state="Grrr" minDur="5" maxDur="50"/>
        <phase duration="3"  state="yrrr"/>
        <phase duration="42" state="rGGG" minDur="5" maxDur="50"/>
        <phase duration="3"  state="ryyy"/>
        <param key="jam-threshold" value="30"/>
    </tlLogic>
    <tlLogic id="GS_226008" type="actuated" programID="0" offset="0">
        <phase duration="42" state="GgGrrr" minDur="5" maxDur="50"/>
        <phase duration="3"  state="yyyrrr"/>
        <phase duration="42" state="rrGGGG" minDur="5" maxDur="50"/>
        <phase duration="3"  state="rryyyy"/>
        <param key="jam-threshold" value="30"/>
    </tlLogic>
    <tlLogic id="GS_24556185" type="actuated" programID="0" offset="0">
        <phase duration="42" state="GGrrr" minDur="5" maxDur="50"/>
        <phase duration="3"  state="yyrrr"/>
        <phase duration="42" state="rrGGG" minDur="5" maxDur="50"/>
        <phase duration="3"  state="rryyy"/>
        <param key="jam-threshold" value="30"/>
    </tlLogic>
    <tlLogic id="GS_24556187" type="actuated" programID="0" offset="0">
        <phase duration="42" state="GGGrr" minDur="5" maxDur="50"/>
        <phase duration="3"  state="yyyrr"/>
        <phase duration="42" state="rrrGG" minDur="5" maxDur="50"/>
        <phase duration="3"  state="rrryy"/>
        <param key="jam-threshold" value="30"/>
    </tlLogic>
    <tlLogic id="GS_24982821" type="actuated" programID="0" offset="0">
        <phase duration="27" state="rrrrGG" minDur="5" maxDur="50"/>
        <phase duration="3"  state="rrrryy"/>
        <phase duration="27" state="GGGrrr" minDur="5" maxDur="50"/>
        <phase duration="3"  state="yyyrrr"/>
        <phase duration="27" state="rrrGrr" minDur="5" maxDur="50"/>
        <phase duration="3"  state="rrryrr"/>
        <param key="jam-threshold" value="30"/>
    </tlLogic>
    <tlLogic id="GS_25495303" type="actuated" programID="0" offset="0">
        <phase duration="38" state="rrrGggGGg" minDur="5" maxDur="50"/>
        <phase duration="3"  state="rrryggyyy"/>
        <phase duration="6"  state="rrrGGGrrr" minDur="5" maxDur="50"/>
        <phase duration="3"  state="rrryyyrrr"/>
        <phase duration="37" state="GGGrrrrrr" minDur="5" maxDur="50"/>
        <phase duration="3"  state="yyyrrrrrr"/>
        <param key="jam-threshold" value="30"/>
    </tlLogic>
    <tlLogic id="GS_25572801" type="actuated" programID="0" offset="0">
        <phase duration="42" state="GGGrr" minDur="5" maxDur="50"/>
        <phase duration="3"  state="yyyrr"/>
        <phase duration="42" state="rrrGG" minDur="5" maxDur="50"/>
        <phase duration="3"  state="rrryy"/>
        <param key="jam-threshold" value="30"/>
    </tlLogic>
    <tlLogic id="GS_25574322" type="actuated" programID="0" offset="0">
        <phase duration="42" state="GGgGggrrr" minDur="5" maxDur="50"/>
        <phase duration="3"  state="yyyyyyrrr"/>
        <phase duration="42" state="GrrrrrGGg" minDur="5" maxDur="50"/>
        <phase duration="3"  state="yrrrrryyy"/>
        <param key="jam-threshold" value="30"/>
    </tlLogic>
    <tlLogic id="GS_26337464" type="actuated" programID="0" offset="0">
        <phase duration="41" state="GGGrr" minDur="7" maxDur="50"/>
        <phase duration="4"  state="yyyrr"/>
        <phase duration="41" state="rrrGG" minDur="7" maxDur="50"/>
        <phase duration="4"  state="rrryy"/>
        <param key="jam-threshold" value="30"/>
    </tlLogic>
    <tlLogic id="GS_266012797" type="actuated" programID="0" offset="0">
        <phase duration="42" state="GgrrrG" minDur="5" maxDur="50"/>
        <phase duration="3"  state="yyrrry"/>
        <phase duration="42" state="rrGGGr" minDur="5" maxDur="50"/>
        <phase duration="3"  state="rryyyr"/>
        <param key="jam-threshold" value="30"/>
    </tlLogic>
    <tlLogic id="GS_266123359" type="actuated" programID="0" offset="0">
        <phase duration="42" state="GGrr" minDur="5" maxDur="50"/>
        <phase duration="3"  state="yyrr"/>
        <phase duration="42" state="rrGG" minDur="5" maxDur="50"/>
        <phase duration="3"  state="rryy"/>
        <param key="jam-threshold" value="30"/>
    </tlLogic>
    <tlLogic id="GS_280955781" type="actuated" programID="0" offset="0">
        <phase duration="41" state="GGGrr" minDur="7" maxDur="50"/>
        <phase duration="4"  state="yyyrr"/>
        <phase duration="41" state="rrrGG" minDur="5" maxDur="50"/>
        <phase duration="4"  state="rrryy"/>
        <param key="jam-threshold" value="30"/>
    </tlLogic>
    <tlLogic id="GS_281677403" type="actuated" programID="0" offset="0">
        <phase duration="42" state="Grr" minDur="5" maxDur="50"/>
        <phase duration="3"  state="yrr"/>
        <phase duration="42" state="rGG" minDur="5" maxDur="50"/>
        <phase duration="3"  state="ryy"/>
        <param key="jam-threshold" value="30"/>
    </tlLogic>
    <tlLogic id="GS_33980886" type="actuated" programID="0" offset="0">
        <phase duration="42" state="GGGrr" minDur="5" maxDur="50"/>
        <phase duration="3"  state="yyyrr"/>
        <phase duration="42" state="rrrGG" minDur="5" maxDur="50"/>
        <phase duration="3"  state="rrryy"/>
        <param key="jam-threshold" value="30"/>
    </tlLogic>
    <tlLogic id="GS_34770808" type="actuated" programID="0" offset="0">
        <phase duration="42" state="GgGrrr" minDur="5" maxDur="50"/>
        <phase duration="3"  state="yyyrrr"/>
        <phase duration="42" state="rrGGGG" minDur="5" maxDur="50"/>
        <phase duration="3"  state="rryyyy"/>
        <param key="jam-threshold" value="30"/>
    </tlLogic>
    <tlLogic id="GS_382716044" type="actuated" programID="0" offset="0">
        <phase duration="42" state="rrrrGGggrrrrGGgg" minDur="5" maxDur="50"/>
        <phase duration="3"  state="rrrryyyyrrrryyyy"/>
        <phase duration="42" state="GGggrrrrGGggrrrr" minDur="5" maxDur="50"/>
        <phase duration="3"  state="yyyyrrrryyyyrrrr"/>
        <param key="jam-threshold" value="30"/>
    </tlLogic>
    <tlLogic id="GS_5949745698" type="actuated" programID="0" offset="0">
        <phase duration="42" state="GGGrrr" minDur="5" maxDur="50"/>
        <phase duration="3"  state="yyyrrr"/>
        <phase duration="42" state="rrrGGG" minDur="5" maxDur="50"/>
        <phase duration="3"  state="rrryyy"/>
        <param key="jam-threshold" value="30"/>
    </tlLogic>
    <tlLogic id="GS_60061070" type="actuated" programID="0" offset="0">
        <phase duration="82" state="GggGGg" minDur="5" maxDur="50"/>
        <phase duration="3"  state="yyyyyy"/>
        <phase duration="5"  state="rrrrrr"/>
        <param key="jam-threshold" value="30"/>
    </tlLogic>
    <tlLogic id="GS_60707546" type="actuated" programID="0" offset="0">
        <phase duration="42" state="GGrrrr" minDur="5" maxDur="50"/>
        <phase duration="3"  state="yyrrrr"/>
        <phase duration="42" state="rrGGGG" minDur="5" maxDur="50"/>
        <phase duration="3"  state="rryyyy"/>
        <param key="jam-threshold" value="30"/>
    </tlLogic>
    <tlLogic id="GS_6128743227" type="actuated" programID="0" offset="0">
        <phase duration="42" state="Grr" minDur="5" maxDur="50"/>
        <phase duration="3"  state="yrr"/>
        <phase duration="42" state="rGG" minDur="5" maxDur="50"/>
        <phase duration="3"  state="ryy"/>
        <param key="jam-threshold" value="30"/>
    </tlLogic>
    <tlLogic id="GS_6610277275" type="actuated" programID="0" offset="0">
        <phase duration="35" state="rGGrr" minDur="10" maxDur="50"/>
        <phase duration="5"  state="ryyrr"/>
        <phase duration="6"  state="rrGGG" minDur="10" maxDur="50"/>
        <phase duration="5"  state="rryyy"/>
        <phase duration="34" state="GrGGr" minDur="5" maxDur="50"/>
        <phase duration="5"  state="yryyr"/>
        <param key="jam-threshold" value="30"/>
    </tlLogic>
    <tlLogic id="GS_87739796" type="actuated" programID="0" offset="0">
        <phase duration="42" state="GgGrrr" minDur="5" maxDur="50"/>
        <phase duration="3"  state="yyyrrr"/>
        <phase duration="42" state="rrGGGG" minDur="5" maxDur="50"/>
        <phase duration="3"  state="rryyyy"/>
        <param key="jam-threshold" value="30"/>
    </tlLogic>
    <tlLogic id="GS_91221899" type="actuated" programID="0" offset="0">
        <phase duration="42" state="GggrrrGGg" minDur="5" maxDur="50"/>
        <phase duration="3"  state="yyyrrryyy"/>
        <phase duration="42" state="rrrGGgGrr" minDur="5" maxDur="50"/>
        <phase duration="3"  state="rrryyyyrr"/>
        <param key="jam-threshold" value="30"/>
    </tlLogic>
    <tlLogic id="GS_92751390" type="actuated" programID="0" offset="0">
        <phase duration="42" state="GGrrr" minDur="5" maxDur="50"/>
        <phase duration="3"  state="yyrrr"/>
        <phase duration="42" state="rrGGG" minDur="5" maxDur="50"/>
        <phase duration="3"  state="rryyy"/>
        <param key="jam-threshold" value="30"/>
    </tlLogic>
    <tlLogic id="GS_cluster_1020312048_1020312082_27470069_27470071" type="actuated" programID="0" offset="0">
        <phase duration="33" state="rrGGGggrrrrGGGGgg" minDur="5" maxDur="50"/>
        <phase duration="3"  state="rryyyggrrrryyyygg"/>
        <phase duration="6"  state="rrrrrGGrrrrrrrrGG" minDur="5" maxDur="50"/>
        <phase duration="3"  state="rrrrryyrrrrrrrryy"/>
        <phase duration="33" state="GGrrrrrGGggGrrrrr" minDur="5" maxDur="50"/>
        <phase duration="3"  state="yyrrrrryyggyrrrrr"/>
        <phase duration="6"  state="rrrrrrrGGGGrrrrrr" minDur="5" maxDur="50"/>
        <phase duration="3"  state="rrrrrrryyyyrrrrrr"/>
        <param key="jam-threshold" value="30"/>
    </tlLogic>
    <tlLogic id="GS_cluster_1023838654_300458213_606233847" type="actuated" programID="0" offset="0">
        <phase duration="38" state="GGggrrrGGGg" minDur="5" maxDur="50"/>
        <phase duration="3"  state="yyggrrryyyy"/>
        <phase duration="6"  state="GGGGrrrrrrr" minDur="5" maxDur="50"/>
        <phase duration="3"  state="yyyyrrrrrrr"/>
        <phase duration="37" state="rrrrGGgGrrr" minDur="5" maxDur="50"/>
        <phase duration="3"  state="rrrryyyyrrr"/>
        <param key="jam-threshold" value="30"/>
    </tlLogic>
    <tlLogic id="GS_cluster_1023839477_112514569_606233841" type="actuated" programID="0" offset="0">
        <phase duration="38" state="GGggrrrrGGGg" minDur="5" maxDur="50"/>
        <phase duration="3"  state="yyggrrrryyyy"/>
        <phase duration="6"  state="GGGGrrrrrrrr" minDur="5" maxDur="50"/>
        <phase duration="3"  state="yyyyrrrrrrrr"/>
        <phase duration="37" state="rrrrGGGgGrrr" minDur="5" maxDur="50"/>
        <phase duration="3"  state="rrrryyyyyrrr"/>
        <param key="jam-threshold" value="30"/>
    </tlLogic>
    <tlLogic id="GS_cluster_1028207418_112514571_335349623" type="actuated" programID="0" offset="0">
        <phase duration="38" state="rrrrGGGgGGgg" minDur="5" maxDur="50"/>
        <phase duration="3"  state="rrrryyyyyygg"/>
        <phase duration="6"  state="rrrrrrrrGGGG" minDur="5" maxDur="50"/>
        <phase duration="3"  state="rrrrrrrryyyy"/>
        <phase duration="37" state="GGGgGrrrrrrr" minDur="5" maxDur="50"/>
        <phase duration="3"  state="yyyyyrrrrrrr"/>
        <param key="jam-threshold" value="30"/>
    </tlLogic>
    <tlLogic id="GS_cluster_1038566218_1885698599_1885698600_26402821" type="actuated" programID="0" offset="0">
        <phase duration="33" state="GGggrrrrGGggrrrrr" minDur="5" maxDur="50"/>
        <phase duration="3"  state="yyggrrrryyggrrrrr"/>
        <phase duration="6"  state="rrGGrrrrrrGGrrrrr" minDur="5" maxDur="50"/>
        <phase duration="3"  state="rryyrrrrrryyrrrrr"/>
        <phase duration="33" state="rrrrGGggrrrrGGGgg" minDur="5" maxDur="50"/>
        <phase duration="3"  state="rrrryyggrrrryyygg"/>
        <phase duration="6"  state="rrrrrrGGrrrrrrrGG" minDur="5" maxDur="50"/>
        <phase duration="3"  state="rrrrrryyrrrrrrryy"/>
        <param key="jam-threshold" value="30"/>
    </tlLogic>
    <tlLogic id="GS_cluster_1092393731_1394591703_58614405" type="actuated" programID="0" offset="0">
        <phase duration="38" state="GGGgGggrrr" minDur="5" maxDur="50"/>
        <phase duration="3"  state="yyyyyggrrr"/>
        <phase duration="6"  state="rrrrGGGrrr" minDur="5" maxDur="50"/>
        <phase duration="3"  state="rrrryyyrrr"/>
        <phase duration="37" state="GrrrrrrGGg" minDur="5" maxDur="50"/>
        <phase duration="3"  state="yrrrrrryyy"/>
        <param key="jam-threshold" value="30"/>
    </tlLogic>
    <tlLogic id="GS_cluster_1092393867_25342933" type="actuated" programID="0" offset="0">
        <phase duration="38" state="GggrrrGGg" minDur="5" maxDur="50"/>
        <phase duration="3"  state="yggrrryyy"/>
        <phase duration="6"  state="GGGrrrrrr" minDur="5" maxDur="50"/>
        <phase duration="3"  state="yyyrrrrrr"/>
        <phase duration="37" state="rrrGGgGrr" minDur="5" maxDur="50"/>
        <phase duration="3"  state="rrryyyyrr"/>
        <param key="jam-threshold" value="30"/>
    </tlLogic>
    <tlLogic id="GS_cluster_1325001930_259755298_259755299" type="actuated" programID="0" offset="0">
        <phase duration="42" state="GGggrrrrGG" minDur="5" maxDur="50"/>
        <phase duration="3"  state="yyyyrrrryy"/>
        <phase duration="42" state="rrrrGGGgGr" minDur="5" maxDur="50"/>
        <phase duration="3"  state="rrrryyyyyr"/>
        <param key="jam-threshold" value="30"/>
    </tlLogic>
    <tlLogic id="GS_cluster_1325001947_259757720_259758931" type="actuated" programID="0" offset="0">
        <phase duration="38" state="GggrrrGGg" minDur="5" maxDur="50"/>
        <phase duration="3"  state="yggrrryyy"/>
        <phase duration="6"  state="GGGrrrrrr" minDur="5" maxDur="50"/>
        <phase duration="3"  state="yyyrrrrrr"/>
        <phase duration="37" state="rrrGGgGrr" minDur="5" maxDur="50"/>
        <phase duration="3"  state="rrryyyyrr"/>
        <param key="jam-threshold" value="30"/>
    </tlLogic>
    <tlLogic id="GS_cluster_1336069771_286760285" type="actuated" programID="0" offset="0">
        <phase duration="38" state="GGGrrrGgg" minDur="5" maxDur="50"/>
        <phase duration="3"  state="yyyrrrygg"/>
        <phase duration="6"  state="rrrrrrGGG" minDur="5" maxDur="50"/>
        <phase duration="3"  state="rrrrrryyy"/>
        <phase duration="37" state="rrrGGGrrr" minDur="5" maxDur="50"/>
        <phase duration="3"  state="rrryyyrrr"/>
        <param key="jam-threshold" value="30"/>
    </tlLogic>
    <tlLogic id="GS_cluster_135020_135021_25058641_25095372" type="actuated" programID="0" offset="0">
        <phase duration="32" state="GGgrrrrGGGggrrrr" minDur="5" maxDur="50"/>
        <phase duration="3"  state="yygrrrryyyggrrrr"/>
        <phase duration="6"  state="rrGrrrrrrrGGrrrr" minDur="5" maxDur="50"/>
        <phase duration="3"  state="rryrrrrrrryyrrrr"/>
        <phase duration="2"  state="rrrrrrrrrrrrrrrr"/>
        <phase duration="31" state="rrrGGggrrrrrGGGG" minDur="5" maxDur="50"/>
        <phase duration="3"  state="rrryyggrrrrryyyy"/>
        <phase duration="6"  state="rrrGGGGrrrrrrrrr" minDur="5" maxDur="50"/>
        <phase duration="3"  state="rrryyyyrrrrrrrrr"/>
        <phase duration="1"  state="rrrrrrrrrrrrrrrr"/>
        <param key="jam-threshold" value="30"/>
    </tlLogic>
    <tlLogic id="GS_cluster_1359417232_259755292_288986961_288986966" type="actuated" programID="0" offset="0">
        <phase duration="33" state="rrrrGGGggrrrrGGgg" minDur="5" maxDur="50"/>
        <phase duration="3"  state="rrrryyyggrrrryygg"/>
        <phase duration="6"  state="rrrrrrrGGrrrrrrGG" minDur="5" maxDur="50"/>
        <phase duration="3"  state="rrrrrrryyrrrrrryy"/>
        <phase duration="33" state="GGggrrrrrGGggrrrr" minDur="5" maxDur="50"/>
        <phase duration="3"  state="yyggrrrrryyggrrrr"/>
        <phase duration="6"  state="rrGGrrrrrrrGGrrrr" minDur="5" maxDur="50"/>
        <phase duration="3"  state="rryyrrrrrrryyrrrr"/>
        <param key="jam-threshold" value="30"/>
    </tlLogic>
    <tlLogic id="GS_cluster_1359417236_259755295" type="actuated" programID="0" offset="0">
        <phase duration="38" state="GGggrrrrGGggrrrr" minDur="5" maxDur="50"/>
        <phase duration="3"  state="yyggrrrryyggrrrr"/>
        <phase duration="6"  state="rrGGrrrrrrGGrrrr" minDur="5" maxDur="50"/>
        <phase duration="3"  state="rryyrrrrrryyrrrr"/>
        <phase duration="37" state="rrrrGGggrrrrGGgg" minDur="5" maxDur="50"/>
        <phase duration="3"  state="rrrryyyyrrrryyyy"/>
        <param key="jam-threshold" value="30"/>
    </tlLogic>
    <tlLogic id="GS_cluster_1368959681_286760279_286760280" type="actuated" programID="0" offset="0">
        <phase duration="38" state="GggrrrrGGGg" minDur="5" maxDur="50"/>
        <phase duration="3"  state="yggrrrryyyy"/>
        <phase duration="6"  state="GGGrrrrrrrr" minDur="5" maxDur="50"/>
        <phase duration="3"  state="yyyrrrrrrrr"/>
        <phase duration="37" state="rrrGGGgGrrr" minDur="5" maxDur="50"/>
        <phase duration="3"  state="rrryyyyyrrr"/>
        <param key="jam-threshold" value="30"/>
    </tlLogic>
    <tlLogic id="GS_cluster_1369430660_277419723_340446121_340446122" type="actuated" programID="0" offset="0">
        <phase duration="37" state="GGggrrrrGGGGg" minDur="5" maxDur="50"/>
        <phase duration="3"  state="yyggrrrryyyyy"/>
        <phase duration="6"  state="GGGGrrrrrrrrr" minDur="5" maxDur="50"/>
        <phase duration="3"  state="yyyyrrrrrrrrr"/>
        <phase duration="1"  state="rrrrrrrrrrrrr"/>
        <phase duration="36" state="rrrrGGGgGrrrr" minDur="5" maxDur="50"/>
        <phase duration="3"  state="rrrryyyyyrrrr"/>
        <phase duration="1"  state="rrrrrrrrrrrrr"/>
        <param key="jam-threshold" value="30"/>
    </tlLogic>
    <tlLogic id="GS_cluster_1386072471_1386072474_1386073318_1386074880" type="actuated" programID="0" offset="0">
        <phase duration="33" state="rrrrrGGGggrrrrGGGgg" minDur="5" maxDur="50"/>
        <phase duration="3"  state="rrrrryyyggrrrryyygg"/>
        <phase duration="6"  state="rrrrrrrrGGrrrrrrrGG" minDur="5" maxDur="50"/>
        <phase duration="3"  state="rrrrrrrryyrrrrrrryy"/>
        <phase duration="33" state="GGGggrrrrrGGggrrrrr" minDur="5" maxDur="50"/>
        <phase duration="3"  state="yyyggrrrrryyggrrrrr"/>
        <phase duration="6"  state="rrrGGrrrrrrrGGrrrrr" minDur="5" maxDur="50"/>
        <phase duration="3"  state="rrryyrrrrrrryyrrrrr"/>
        <param key="jam-threshold" value="30"/>
    </tlLogic>
    <tlLogic id="GS_cluster_1389975913_1389977848_260715666_260715667" type="actuated" programID="0" offset="0">
        <phase duration="33" state="GGGggrrrrGGGggrrrr" minDur="5" maxDur="50"/>
        <phase duration="3"  state="yyyggrrrryyyggrrrr"/>
        <phase duration="6"  state="rrrGGrrrrrrrGGrrrr" minDur="5" maxDur="50"/>
        <phase duration="3"  state="rrryyrrrrrrryyrrrr"/>
        <phase duration="33" state="rrrrrGGggrrrrrGGgg" minDur="5" maxDur="50"/>
        <phase duration="3"  state="rrrrryyggrrrrryygg"/>
        <phase duration="6"  state="rrrrrrrGGrrrrrrrGG" minDur="5" maxDur="50"/>
        <phase duration="3"  state="rrrrrrryyrrrrrrryy"/>
        <param key="jam-threshold" value="30"/>
    </tlLogic>
    <tlLogic id="GS_cluster_1394580790_1394580792_1394583068_1394583072" type="actuated" programID="0" offset="0">
        <phase duration="35" state="rrrrGGGggrrrrGGGgg" minDur="7" maxDur="50"/>
        <phase duration="5"  state="rrrryyyggrrrryyygg"/>
        <phase duration="6"  state="rrrrrrrGGrrrrrrrGG" minDur="7" maxDur="50"/>
        <phase duration="5"  state="rrrrrrryyrrrrrrryy"/>
        <phase duration="34" state="GGggrrrrrGGggrrrrr" minDur="10" maxDur="50"/>
        <phase duration="5"  state="yyyyrrrrryyyyrrrrr"/>
        <param key="jam-threshold" value="30"/>
    </tlLogic>
    <tlLogic id="GS_cluster_1395321324_25293713_56055430" type="actuated" programID="0" offset="0">
        <phase duration="36" state="GGGgGggrrr" minDur="7" maxDur="50"/>
        <phase duration="4"  state="yyyyyggrrr"/>
        <phase duration="6"  state="rrrrGGGrrr" minDur="7" maxDur="50"/>
        <phase duration="4"  state="rrrryyyrrr"/>
        <phase duration="36" state="GrrrrrrGGg" minDur="5" maxDur="50"/>
        <phase duration="4"  state="yrrrrrryyy"/>
        <param key="jam-threshold" value="30"/>
    </tlLogic>
    <tlLogic id="GS_cluster_1401707593_29737586_29737587" type="actuated" programID="0" offset="0">
        <phase duration="36" state="GGggrrrrGGG" minDur="7" maxDur="50"/>
        <phase duration="4"  state="yyggrrrryyy"/>
        <phase duration="6"  state="GGGGrrrrrrr" minDur="7" maxDur="50"/>
        <phase duration="4"  state="yyyyrrrrrrr"/>
        <phase duration="36" state="rrrrGGGGrrr" minDur="5" maxDur="50"/>
        <phase duration="4"  state="rrrryyyyrrr"/>
        <param key="jam-threshold" value="30"/>
    </tlLogic>
    <tlLogic id="GS_cluster_1401708059_25238079_6646078689_6646078690" type="actuated" programID="0" offset="0">
        <phase duration="29" state="rrrrGGGggrrrrGGGgg" minDur="5" maxDur="50"/>
        <phase duration="5"  state="rrrryyyggrrrryyygg"/>
        <phase duration="6"  state="rrrrrrrGGrrrrrrrGG" minDur="5" maxDur="50"/>
        <phase duration="5"  state="rrrrrrryyrrrrrrryy"/>
        <phase duration="29" state="GGrrrrrrrGGggrrrrr" minDur="10" maxDur="50"/>
        <phase duration="5"  state="yyrrrrrrryyggrrrrr"/>
        <phase duration="6"  state="rrGGrrrrrrrGGrrrrr" minDur="10" maxDur="50"/>
        <phase duration="5"  state="rryyrrrrrrryyrrrrr"/>
        <param key="jam-threshold" value="30"/>
    </tlLogic>
    <tlLogic id="GS_cluster_1401708084_25290556_25290563" type="actuated" programID="0" offset="0">
        <phase duration="36" state="GGggrrrGGGg" minDur="7" maxDur="50"/>
        <phase duration="4"  state="yyggrrryyyy"/>
        <phase duration="6"  state="GGGGrrrrrrr" minDur="7" maxDur="50"/>
        <phase duration="4"  state="yyyyrrrrrrr"/>
        <phase duration="36" state="rrrrGGgGrrr" minDur="5" maxDur="50"/>
        <phase duration="4"  state="rrrryyyyrrr"/>
        <param key="jam-threshold" value="30"/>
    </tlLogic>
    <tlLogic id="GS_cluster_141443890_24982818_311691375_311691377" type="actuated" programID="0" offset="0">
        <phase duration="57" state="GGgrrrrGGGG" minDur="5" maxDur="75"/>
        <phase duration="3"  state="yygrrrryyyy"/>
        <phase duration="6"  state="GGGrrrrrrrr" minDur="5" maxDur="50"/>
        <phase duration="3"  state="yyyrrrrrrrr"/>
        <phase duration="37" state="rrrGGGgGrrr" minDur="5" maxDur="50"/>
        <phase duration="3"  state="rrryyyyyrrr"/>
        <param key="jam-threshold" value="30"/>
    </tlLogic>
    <tlLogic id="GS_cluster_1452663798_25543191_280989813" type="actuated" programID="0" offset="0">
        <phase duration="38" state="rrrGGGGgg" minDur="5" maxDur="50"/>
        <phase duration="3"  state="rrryyyygg"/>
        <phase duration="6"  state="rrrrrrGGG" minDur="5" maxDur="50"/>
        <phase duration="3"  state="rrrrrryyy"/>
        <phase duration="37" state="GGgGrrrrr" minDur="5" maxDur="50"/>
        <phase duration="3"  state="yyyyrrrrr"/>
        <param key="jam-threshold" value="30"/>
    </tlLogic>
    <tlLogic id="GS_cluster_1460980074_322078004" type="actuated" programID="0" offset="0">
        <phase duration="38" state="GggrrrGGg" minDur="5" maxDur="50"/>
        <phase duration="3"  state="yggrrryyy"/>
        <phase duration="6"  state="GGGrrrrrr" minDur="5" maxDur="50"/>
        <phase duration="3"  state="yyyrrrrrr"/>
        <phase duration="37" state="rrrGGgGrr" minDur="5" maxDur="50"/>
        <phase duration="3"  state="rrryyyyrr"/>
        <param key="jam-threshold" value="30"/>
    </tlLogic>
    <tlLogic id="GS_cluster_1462994795_246637225_32011532" type="actuated" programID="0" offset="0">
        <phase duration="38" state="GGGGGGgrr" minDur="5" maxDur="50"/>
        <phase duration="3"  state="yyyyyygrr"/>
        <phase duration="6"  state="rrrrGGGrr" minDur="5" maxDur="50"/>
        <phase duration="3"  state="rrrryyyrr"/>
        <phase duration="37" state="GrrrrrrGG" minDur="5" maxDur="50"/>
        <phase duration="3"  state="yrrrrrryy"/>
        <param key="jam-threshold" value="30"/>
    </tlLogic>
    <tlLogic id="GS_cluster_1464597231_25526162_298512128" type="actuated" programID="0" offset="0">
        <phase duration="42" state="rrrrGGgGGgg" minDur="5" maxDur="50"/>
        <phase duration="3"  state="rrrryyyyyyy"/>
        <phase duration="42" state="GGGgGrrrrrr" minDur="5" maxDur="50"/>
        <phase duration="3"  state="yyyyyrrrrrr"/>
        <param key="jam-threshold" value="30"/>
    </tlLogic>
    <tlLogic id="GS_cluster_148083349_257098801_257098805_26400201" type="actuated" programID="0" offset="0">
        <phase duration="38" state="rrrGGGgg" minDur="5" maxDur="50"/>
        <phase duration="3"  state="rrryyygg"/>
        <phase duration="6"  state="rrrrrGGG" minDur="5" maxDur="50"/>
        <phase duration="3"  state="rrrrryyy"/>
        <phase duration="37" state="GGgGrrrr" minDur="5" maxDur="50"/>
        <phase duration="3"  state="yyyyrrrr"/>
        <param key="jam-threshold" value="30"/>
    </tlLogic>
    <tlLogic id="GS_cluster_1499965316_7950412210" type="actuated" programID="0" offset="0">
        <phase duration="33" state="GggrrrGGg" minDur="13" maxDur="50"/>
        <phase duration="6"  state="yggrrryyy"/>
        <phase duration="6"  state="GGGrrrrrr" minDur="13" maxDur="50"/>
        <phase duration="6"  state="yyyrrrrrr"/>
        <phase duration="33" state="rrrGGgGrr" minDur="5" maxDur="50"/>
        <phase duration="6"  state="rrryyyyrr"/>
        <param key="jam-threshold" value="30"/>
    </tlLogic>
    <tlLogic id="GS_cluster_150927896_161500703_25811319_76463639" type="actuated" programID="0" offset="0">