<?xml version="1.0" encoding="utf-8"?>
<!-- generated on 2023-07-05 14:05:03.077010 by randomTrips.py v1_13_0+0000-4b5bca80615
<configuration>
    <end value="900"/>
    <fringe-factor value="5.0"/>
    <min-distance value="1500.0"/>
    <net-file value="C:\Users\bochenin\RL project\materials\ridesharing\toy example\randgrid.net.xml"/>
    <route-file value="C:\Users\bochenin\RL project\materials\ridesharing\toy example\randgrid.rou.xml"/>
    <trip-attributes value="departLane=&quot;best&quot; departSpeed=&quot;max&quot; departPos=&quot;random&quot;"/>
    <output-trip-file value="C:\Users\bochenin\RL project\materials\ridesharing\toy example\randgrid.trips.xml"/>
</configuration>

-->
<routes xmlns:xsi="http://www.w3.org/2001/XMLSchema-instance" xsi:noNamespaceSchemaLocation="http://sumo.dlr.de/xsd/routes_file.xsd">
 <vType color="green" id="taxi" vClass="taxi">
  <param key="has.taxi.device" value="true"/>
  <param key="device.taxi.pickUpDuration" value="0"/>
  <param key="device.taxi.dropOffDuration" value="60"/>
  <param key="device.taxi.parking" value="false"/>
  <param key="device.taxi.end" value="1300"/>
 </vType>
 <trip depart="0.00" departLane="best" departPos="0" departSpeed="0" from="-4479" id="0" to="-1212"/>
 <trip depart="1.00" departLane="best" departPos="0" departSpeed="0" from="-1209" id="1" to="-2492"/>
 <trip depart="2.00" departLane="best" departPos="0" departSpeed="0" from="-3663" id="2" to="-2251"/>
 <trip depart="3.00" departLane="best" departPos="0" departSpeed="0" from="4890" id="3" to="-4297"/>
 <trip depart="4.00" departLane="best" departPos="0" departSpeed="0" from="2924" id="4" to="3372"/>
 <trip depart="5.00" departLane="best" departPos="0" departSpeed="0" from="-2333" id="5" to="3372"/>
 <trip depart="6.00" departLane="best" departPos="0" departSpeed="0" from="-3372" id="6" to="-3214"/>
 <trip depart="7.00" departLane="best" departPos="0" departSpeed="0" from="3531" id="7" to="-3930"/>
 <trip depart="8.00" departLane="best" departPos="0" departSpeed="0" from="1940" id="8" to="2126"/>
 <trip depart="9.00" departLane="best" departPos="0" departSpeed="0" from="-3144" id="9" to="2664"/>
 <trip depart="10.00" departLane="best" departPos="0" departSpeed="0" from="-4890" id="10" to="-2387"/>
 <trip depart="11.00" departLane="best" departPos="0" departSpeed="0" from="2344" id="11" to="2138"/>
 <trip depart="12.00" departLane="best" departPos="0" departSpeed="0" from="3587" id="12" to="4479"/>
 <trip depart="13.00" departLane="best" departPos="0" departSpeed="0" from="-4741" id="13" to="2173"/>
 <trip depart="14.00" departLane="best" departPos="0" departSpeed="0" from="-4493" id="14" to="-2662"/>
 <trip depart="15.00" departLane="best" departPos="0" departSpeed="0" from="-5074" id="15" to="338"/>
 <trip depart="16.00" departLane="best" departPos="0" departSpeed="0" from="-2442" id="16" to="-3922"/>
 <trip depart="17.00" departLane="best" departPos="0" departSpeed="0" from="-4527" id="17" to="1962"/>
 <trip depart="18.00" departLane="best" departPos="0" departSpeed="0" from="-3590" id="18" to="2344"/>
 <trip depart="19.00" departLane="best" departPos="0" departSpeed="0" from="-27" id="19" to="4873"/>
 <trip depart="20.00" departLane="best" departPos="0" departSpeed="0" from="-1950" id="20" to="1178"/>
 <trip depart="21.00" departLane="best" departPos="0" departSpeed="0" from="-4358" id="21" to="-43"/>
 <trip depart="22.00" departLane="best" departPos="0" departSpeed="0" from="-2402" id="22" to="1257"/>
 <trip depart="23.00" departLane="best" departPos="0" departSpeed="0" from="-4479" id="23" to="-3363"/>
 <trip depart="24.00" departLane="best" departPos="0" departSpeed="0" from="991" id="24" to="4493"/>
 <trip depart="25.00" departLane="best" departPos="0" departSpeed="0" from="58" id="25" to="5053"/>
 <trip depart="26.00" departLane="best" departPos="0" departSpeed="0" from="-4747" id="26" to="-2664"/>
 <trip depart="27.00" departLane="best" departPos="0" departSpeed="0" from="-4358" id="27" to="-1614"/>
 <trip depart="28.00" departLane="best" departPos="0" departSpeed="0" from="-2251" id="28" to="-3663"/>
 <trip depart="29.00" departLane="best" departPos="0" departSpeed="0" from="-1610" id="29" to="2333"/>
 <trip depart="30.00" departLane="best" departPos="0" departSpeed="0" from="-2271" id="30" to="5178"/>
 <trip depart="31.00" departLane="best" departPos="0" departSpeed="0" from="-4479" id="31" to="2331"/>
 <trip depart="32.00" departLane="best" departPos="0" departSpeed="0" from="-2480" id="32" to="3368"/>
 <trip depart="33.00" departLane="best" departPos="0" departSpeed="0" from="-3372" id="33" to="3660"/>
 <trip depart="34.00" departLane="best" departPos="0" departSpeed="0" from="-1755" id="34" to="-2664"/>
 <trip depart="35.00" departLane="best" departPos="0" departSpeed="0" from="-3938" id="35" to="-2273"/>
 <trip depart="36.00" departLane="best" departPos="0" departSpeed="0" from="1492" id="36" to="-3195"/>
 <trip depart="37.00" departLane="best" departPos="0" departSpeed="0" from="-4853" id="37" to="4873"/>
 <trip depart="38.00" departLane="best" departPos="0" departSpeed="0" from="-4493" id="38" to="-3359"/>
 <trip depart="39.00" departLane="best" departPos="0" departSpeed="0" from="-1766" id="39" to="4718"/>
 <trip depart="40.00" departLane="best" departPos="0" departSpeed="0" from="2650" id="40" to="4531"/>
 <trip depart="41.00" departLane="best" departPos="0" departSpeed="0" from="2440" id="41" to="4718"/>
 <trip depart="42.00" departLane="best" departPos="0" departSpeed="0" from="-2243" id="42" to="5055"/>
 <trip depart="43.00" departLane="best" departPos="0" departSpeed="0" from="-1205" id="43" to="3503"/>
 <trip depart="44.00" departLane="best" departPos="0" departSpeed="0" from="-3507" id="44" to="5055"/>
 <trip depart="45.00" departLane="best" departPos="0" departSpeed="0" from="3501" id="45" to="4531"/>
 <trip depart="46.00" departLane="best" departPos="0" departSpeed="0" from="-4716" id="46" to="-3806"/>
 <trip depart="47.00" departLane="best" departPos="0" departSpeed="0" from="-1204" id="47" to="-2440"/>
 <trip depart="48.00" departLane="best" departPos="0" departSpeed="0" from="1186" id="48" to="1950"/>
 <trip depart="49.00" departLane="best" departPos="0" departSpeed="0" from="-1002" id="49" to="5053"/>
 <trip depart="50.00" departLane="best" departPos="0" departSpeed="0" from="-5070" id="50" to="3368"/>
 <trip depart="51.00" departLane="best" departPos="0" departSpeed="0" from="2251" id="51" to="3096"/>
 <trip depart="52.00" departLane="best" departPos="0" departSpeed="0" from="1774" id="52" to="-4267"/>
 <trip depart="53.00" departLane="best" departPos="0" departSpeed="0" from="-3372" id="53" to="4527"/>
 <trip depart="54.00" departLane="best" departPos="0" departSpeed="0" from="-3372" id="54" to="-873"/>
 <trip depart="55.00" departLane="best" departPos="0" departSpeed="0" from="4516" id="55" to="3102"/>
 <trip depart="56.00" departLane="best" departPos="0" departSpeed="0" from="-3366" id="56" to="2169"/>
 <trip depart="57.00" departLane="best" departPos="0" departSpeed="0" from="-1000" id="57" to="-3503"/>
 <trip depart="58.00" departLane="best" departPos="0" departSpeed="0" from="2650" id="58" to="-2331"/>
 <trip depart="59.00" departLane="best" departPos="0" departSpeed="0" from="3055" id="59" to="3590"/>
 <trip depart="60.00" departLane="best" departPos="0" departSpeed="0" from="3195" id="60" to="-1755"/>
 <trip depart="61.00" departLane="best" departPos="0" departSpeed="0" from="-4476" id="61" to="2612"/>
 <trip depart="62.00" departLane="best" departPos="0" departSpeed="0" from="-4873" id="62" to="-3096"/>
 <trip depart="63.00" departLane="best" departPos="0" departSpeed="0" from="-3060" id="63" to="4527"/>
 <trip depart="64.00" departLane="best" departPos="0" departSpeed="0" from="-4609" id="64" to="4298"/>
 <trip depart="65.00" departLane="best" departPos="0" departSpeed="0" from="3920" id="65" to="3507"/>
 <trip depart="66.00" departLane="best" departPos="0" departSpeed="0" from="-4741" id="66" to="-3162"/>
 <trip depart="67.00" departLane="best" departPos="0" departSpeed="0" from="-2899" id="67" to="3205"/>
 <trip depart="68.00" departLane="best" departPos="0" departSpeed="0" from="-4479" id="68" to="-2633"/>
 <trip depart="69.00" departLane="best" departPos="0" departSpeed="0" from="-4479" id="69" to="4873"/>
 <trip depart="70.00" departLane="best" departPos="0" departSpeed="0" from="3205" id="70" to="5074"/>
 <trip depart="71.00" departLane="best" departPos="0" departSpeed="0" from="-3587" id="71" to="3103"/>
 <trip depart="72.00" departLane="best" departPos="0" departSpeed="0" from="-4718" id="72" to="-214"/>
 <trip depart="73.00" departLane="best" departPos="0" departSpeed="0" from="-4330" id="73" to="2232"/>
 <trip depart="74.00" departLane="best" departPos="0" departSpeed="0" from="1725" id="74" to="3663"/>
 <trip depart="75.00" departLane="best" departPos="0" departSpeed="0" from="-2138" id="75" to="3095"/>
 <trip depart="76.00" departLane="best" departPos="0" departSpeed="0" from="-3372" id="76" to="3102"/>
 <trip depart="77.00" departLane="best" departPos="0" departSpeed="0" from="-4493" id="77" to="-4890"/>
 <trip depart="78.00" departLane="best" departPos="0" departSpeed="0" from="-1972" id="78" to="5178"/>
 <trip depart="79.00" departLane="best" departPos="0" departSpeed="0" from="2220" id="79" to="5178"/>
 <trip depart="80.00" departLane="best" departPos="0" departSpeed="0" from="-4527" id="80" to="338"/>
 <trip depart="81.00" departLane="best" departPos="0" departSpeed="0" from="-3146" id="81" to="4527"/>
 <trip depart="82.00" departLane="best" departPos="0" departSpeed="0" from="-2502" id="82" to="4279"/>
 <trip depart="83.00" departLane="best" departPos="0" departSpeed="0" from="199" id="83" to="-3359"/>
 <trip depart="84.00" departLane="best" departPos="0" departSpeed="0" from="-190" id="84" to="3368"/>
 <trip depart="85.00" departLane="best" departPos="0" departSpeed="0" from="-5064" id="85" to="1148"/>
 <trip depart="86.00" departLane="best" departPos="0" departSpeed="0" from="2283" id="86" to="-4267"/>
 <trip depart="87.00" departLane="best" departPos="0" departSpeed="0" from="1986" id="87" to="-2138"/>
 <trip depart="88.00" departLane="best" departPos="0" departSpeed="0" from="3501" id="88" to="2284"/>
 <trip depart="89.00" departLane="best" departPos="0" departSpeed="0" from="-4718" id="89" to="1209"/>
 <trip depart="90.00" departLane="best" departPos="0" departSpeed="0" from="-2372" id="90" to="-1595"/>
 <trip depart="91.00" departLane="best" departPos="0" departSpeed="0" from="2623" id="91" to="-2937"/>
 <trip depart="92.00" departLane="best" departPos="0" departSpeed="0" from="2243" id="92" to="5064"/>
 <trip depart="93.00" departLane="best" departPos="0" departSpeed="0" from="-2502" id="93" to="-2662"/>
 <trip depart="94.00" departLane="best" departPos="0" departSpeed="0" from="-2343" id="94" to="-1758"/>
 <trip depart="95.00" departLane="best" departPos="0" departSpeed="0" from="1956" id="95" to="5053"/>
 <trip depart="96.00" departLane="best" departPos="0" departSpeed="0" from="-1934" id="96" to="5178"/>
 <trip depart="97.00" departLane="best" departPos="0" departSpeed="0" from="4265" id="97" to="-2396"/>
 <trip depart="98.00" departLane="best" departPos="0" departSpeed="0" from="-4873" id="98" to="-1934"/>
 <trip depart="99.00" departLane="best" departPos="0" departSpeed="0" from="-3507" id="99" to="3205"/>
 <trip depart="100.00" departLane="best" departPos="0" departSpeed="0" from="2331" id="100" to="2502"/>
 <trip depart="101.00" departLane="best" departPos="0" departSpeed="0" from="-5178" id="101" to="5053"/>
 <trip depart="102.00" departLane="best" departPos="0" departSpeed="0" from="-4527" id="102" to="3220"/>
 <trip depart="103.00" departLane="best" departPos="0" departSpeed="0" from="-2273" id="103" to="2182"/>
 <trip depart="104.00" departLane="best" departPos="0" departSpeed="0" from="2149" id="104" to="1946"/>
 <trip depart="105.00" departLane="best" departPos="0" departSpeed="0" from="-3162" id="105" to="4479"/>
 <trip depart="106.00" departLane="best" departPos="0" departSpeed="0" from="-3193" id="106" to="4173"/>
 <trip depart="107.00" departLane="best" departPos="0" departSpeed="0" from="-4479" id="107" to="5055"/>
 <trip depart="108.00" departLane="best" departPos="0" departSpeed="0" from="-5178" id="108" to="2151"/>
 <trip depart="109.00" departLane="best" departPos="0" departSpeed="0" from="-4609" id="109" to="-3940"/>
 <trip depart="110.00" departLane="best" departPos="0" departSpeed="0" from="2428" id="110" to="-1474"/>
 <trip depart="111.00" departLane="best" departPos="0" departSpeed="0" from="2273" id="111" to="3238"/>
 <trip depart="112.00" departLane="best" departPos="0" departSpeed="0" from="3503" id="112" to="1209"/>
 <trip depart="113.00" departLane="best" departPos="0" departSpeed="0" from="-5059" id="113" to="1474"/>
 <trip depart="114.00" departLane="best" departPos="0" departSpeed="0" from="-4718" id="114" to="58"/>
 <trip depart="115.00" departLane="best" departPos="0" departSpeed="0" from="172" id="115" to="4527"/>
 <trip depart="116.00" departLane="best" departPos="0" departSpeed="0" from="3200" id="116" to="4531"/>
 <trip depart="117.00" departLane="best" departPos="0" departSpeed="0" from="-4265" id="117" to="-3936"/>
 <trip depart="118.00" departLane="best" departPos="0" departSpeed="0" from="3501" id="118" to="-1257"/>
 <trip depart="119.00" departLane="best" departPos="0" departSpeed="0" from="4279" id="119" to="92"/>
 <trip depart="120.00" departLane="best" departPos="0" departSpeed="0" from="1974" id="120" to="4863"/>
 <trip depart="121.00" departLane="best" departPos="0" departSpeed="0" from="-334" id="121" to="-4921"/>
 <trip depart="122.00" departLane="best" departPos="0" departSpeed="0" from="-2214" id="122" to="1994"/>
 <trip depart="123.00" departLane="best" departPos="0" departSpeed="0" from="3498" id="123" to="2492"/>
 <trip depart="124.00" departLane="best" departPos="0" departSpeed="0" from="-2937" id="124" to="4889"/>
 <trip depart="125.00" departLane="best" departPos="0" departSpeed="0" from="-3092" id="125" to="-3153"/>
 <trip depart="126.00" departLane="best" departPos="0" departSpeed="0" from="-2273" id="126" to="1211"/>
 <trip depart="127.00" departLane="best" departPos="0" departSpeed="0" from="-3068" id="127" to="4514"/>
 <trip depart="128.00" departLane="best" departPos="0" departSpeed="0" from="-4747" id="128" to="-3076"/>
 <trip depart="129.00" departLane="best" departPos="0" departSpeed="0" from="854" id="129" to="-3660"/>
 <trip depart="130.00" departLane="best" departPos="0" departSpeed="0" from="-4531" id="130" to="2322"/>
 <trip depart="131.00" departLane="best" departPos="0" departSpeed="0" from="-3341" id="131" to="3549"/>
 <trip depart="132.00" departLane="best" departPos="0" departSpeed="0" from="-5064" id="132" to="4890"/>
 <trip depart="133.00" departLane="best" departPos="0" departSpeed="0" from="3096" id="133" to="-3155"/>
 <trip depart="134.00" departLane="best" departPos="0" departSpeed="0" from="-3660" id="134" to="-199"/>
 <trip depart="135.00" departLane="best" departPos="0" departSpeed="0" from="-3934" id="135" to="4179"/>
 <trip depart="136.00" departLane="best" departPos="0" departSpeed="0" from="-1205" id="136" to="4718"/>
 <trip depart="137.00" departLane="best" departPos="0" departSpeed="0" from="3076" id="137" to="4873"/>
 <trip depart="138.00" departLane="best" departPos="0" departSpeed="0" from="-3368" id="138" to="-873"/>
 <trip depart="139.00" departLane="best" departPos="0" departSpeed="0" from="-4479" id="139" to="-1951"/>
 <trip depart="140.00" departLane="best" departPos="0" departSpeed="0" from="-4853" id="140" to="-873"/>
 <trip depart="141.00" departLane="best" departPos="0" departSpeed="0" from="462" id="141" to="4531"/>
 <trip depart="142.00" departLane="best" departPos="0" departSpeed="0" from="-2228" id="142" to="4747"/>
 <trip depart="143.00" departLane="best" departPos="0" departSpeed="0" from="2468" id="143" to="4598"/>
 <trip depart="144.00" departLane="best" departPos="0" departSpeed="0" from="-5055" id="144" to="1474"/>
 <trip depart="145.00" departLane="best" departPos="0" departSpeed="0" from="3948" id="145" to="-1755"/>
 <trip depart="146.00" departLane="best" departPos="0" departSpeed="0" from="199" id="146" to="4527"/>
 <trip depart="147.00" departLane="best" departPos="0" departSpeed="0" from="-4479" id="147" to="-1940"/>
 <trip depart="148.00" departLane="best" departPos="0" departSpeed="0" from="-4493" id="148" to="3076"/>
 <trip depart="149.00" departLane="best" departPos="0" departSpeed="0" from="4297" id="149" to="-1737"/>
 <trip depart="150.00" departLane="best" departPos="0" departSpeed="0" from="3055" id="150" to="2440"/>
 <trip depart="151.00" departLane="best" departPos="0" departSpeed="0" from="1606" id="151" to="-1209"/>
 <trip depart="152.00" departLane="best" departPos="0" departSpeed="0" from="-3663" id="152" to="-1026"/>
 <trip depart="153.00" departLane="best" departPos="0" departSpeed="0" from="-3939" id="153" to="3368"/>
 <trip depart="154.00" departLane="best" departPos="0" departSpeed="0" from="2435" id="154" to="2243"/>
 <trip depart="155.00" departLane="best" departPos="0" departSpeed="0" from="-2271" id="155" to="2480"/>
 <trip depart="156.00" departLane="best" departPos="0" departSpeed="0" from="-4531" id="156" to="-3341"/>
 <trip depart="157.00" departLane="best" departPos="0" departSpeed="0" from="-45" id="157" to="-3498"/>
 <trip depart="158.00" departLane="best" departPos="0" departSpeed="0" from="-4334" id="158" to="2387"/>
 <trip depart="159.00" departLane="best" departPos="0" departSpeed="0" from="-1034" id="159" to="-3675"/>
 <trip depart="160.00" departLane="best" departPos="0" departSpeed="0" from="-2502" id="160" to="-2173"/>
 <trip depart="161.00" departLane="best" departPos="0" departSpeed="0" from="-3093" id="161" to="-4265"/>
 <trip depart="162.00" departLane="best" departPos="0" departSpeed="0" from="-1034" id="162" to="3531"/>
 <trip depart="163.00" departLane="best" departPos="0" departSpeed="0" from="3100" id="163" to="4319"/>
 <trip depart="164.00" departLane="best" departPos="0" departSpeed="0" from="4279" id="164" to="4534"/>
 <trip depart="165.00" departLane="best" departPos="0" departSpeed="0" from="3938" id="165" to="-4476"/>
 <trip depart="166.00" departLane="best" departPos="0" departSpeed="0" from="1739" id="166" to="-2372"/>
 <trip depart="167.00" departLane="best" departPos="0" departSpeed="0" from="-4534" id="167" to="5053"/>
 <trip depart="168.00" departLane="best" departPos="0" departSpeed="0" from="-3368" id="168" to="-3343"/>
 <trip depart="169.00" departLane="best" departPos="0" departSpeed="0" from="3916" id="169" to="1259"/>
 <trip depart="170.00" departLane="best" departPos="0" departSpeed="0" from="-1960" id="170" to="4747"/>
 <trip depart="171.00" departLane="best" departPos="0" departSpeed="0" from="-3671" id="171" to="3366"/>
 <trip depart="172.00" departLane="best" departPos="0" departSpeed="0" from="-3059" id="172" to="1204"/>
 <trip depart="173.00" departLane="best" departPos="0" departSpeed="0" from="-2273" id="173" to="-4919"/>
 <trip depart="174.00" departLane="best" departPos="0" departSpeed="0" from="-3660" id="174" to="2372"/>
 <trip depart="175.00" departLane="best" departPos="0" departSpeed="0" from="-4319" id="175" to="2358"/>
 <trip depart="176.00" departLane="best" departPos="0" departSpeed="0" from="4599" id="176" to="1755"/>
 <trip depart="177.00" departLane="best" departPos="0" departSpeed="0" from="-4531" id="177" to="-3501"/>
 <trip depart="178.00" departLane="best" departPos="0" departSpeed="0" from="-5064" id="178" to="-3920"/>
 <trip depart="179.00" departLane="best" departPos="0" departSpeed="0" from="3101" id="179" to="-4863"/>
 <trip depart="180.00" departLane="best" departPos="0" departSpeed="0" from="-4716" id="180" to="-338"/>
 <trip depart="181.00" departLane="best" departPos="0" departSpeed="0" from="-4276" id="181" to="199"/>
 <trip depart="182.00" departLane="best" departPos="0" departSpeed="0" from="5070" id="182" to="4358"/>
 <trip depart="183.00" departLane="best" departPos="0" departSpeed="0" from="-3068" id="183" to="2664"/>
 <trip depart="184.00" departLane="best" departPos="0" departSpeed="0" from="3938" id="184" to="-2220"/>
 <trip depart="185.00" departLane="best" departPos="0" departSpeed="0" from="-4527" id="185" to="5064"/>
 <trip depart="186.00" departLane="best" departPos="0" departSpeed="0" from="4334" id="186" to="4493"/>
 <trip depart="187.00" departLane="best" departPos="0" departSpeed="0" from="-1775" id="187" to="-3155"/>
 <trip depart="188.00" departLane="best" departPos="0" departSpeed="0" from="-4479" id="188" to="4267"/>
 <trip depart="189.00" departLane="best" departPos="0" departSpeed="0" from="-3531" id="189" to="-1474"/>
 <trip depart="190.00" departLane="best" departPos="0" departSpeed="0" from="-5074" id="190" to="4358"/>
 <trip depart="191.00" departLane="best" departPos="0" departSpeed="0" from="-2344" id="191" to="3934"/>
 <trip depart="192.00" departLane="best" departPos="0" departSpeed="0" from="-1474" id="192" to="-2609"/>
 <trip depart="193.00" departLane="best" departPos="0" departSpeed="0" from="-1469" id="193" to="5055"/>
 <trip depart="194.00" departLane="best" departPos="0" departSpeed="0" from="-5053" id="194" to="844"/>
 <trip depart="195.00" departLane="best" departPos="0" departSpeed="0" from="-5074" id="195" to="-3146"/>
 <trip depart="196.00" departLane="best" departPos="0" departSpeed="0" from="-3808" id="196" to="3936"/>
 <trip depart="197.00" departLane="best" departPos="0" departSpeed="0" from="3366" id="197" to="-4276"/>
 <trip depart="198.00" departLane="best" departPos="0" departSpeed="0" from="-2128" id="198" to="-4863"/>
 <trip depart="199.00" departLane="best" departPos="0" departSpeed="0" from="-4873" id="199" to="5053"/>
 <trip depart="200.00" departLane="best" departPos="0" departSpeed="0" from="1154" id="200" to="4362"/>
 <trip depart="201.00" departLane="best" departPos="0" departSpeed="0" from="-5074" id="201" to="-3940"/>
 <trip depart="202.00" departLane="best" departPos="0" departSpeed="0" from="-3368" id="202" to="2402"/>
 <trip depart="203.00" departLane="best" departPos="0" departSpeed="0" from="-4493" id="203" to="3193"/>
 <trip depart="204.00" departLane="best" departPos="0" departSpeed="0" from="-3687" id="204" to="-1470"/>
 <trip depart="205.00" departLane="best" departPos="0" departSpeed="0" from="3498" id="205" to="-4514"/>
 <trip depart="206.00" departLane="best" departPos="0" departSpeed="0" from="-1758" id="206" to="2660"/>
 <trip depart="207.00" departLane="best" departPos="0" departSpeed="0" from="-3929" id="207" to="4298"/>
 <trip depart="208.00" departLane="best" departPos="0" departSpeed="0" from="-3934" id="208" to="-58"/>
 <trip depart="209.00" departLane="best" departPos="0" departSpeed="0" from="-68" id="209" to="2405"/>
 <trip depart="210.00" departLane="best" departPos="0" departSpeed="0" from="-3220" id="210" to="4919"/>
 <trip depart="211.00" departLane="best" departPos="0" departSpeed="0" from="-3687" id="211" to="-1722"/>
 <trip depart="212.00" departLane="best" departPos="0" departSpeed="0" from="-5074" id="212" to="4741"/>
 <trip depart="213.00" departLane="best" departPos="0" departSpeed="0" from="4316" id="213" to="2660"/>
 <trip depart="214.00" departLane="best" departPos="0" departSpeed="0" from="-3938" id="214" to="4316"/>
 <trip depart="215.00" departLane="best" departPos="0" departSpeed="0" from="991" id="215" to="3368"/>
 <trip depart="216.00" departLane="best" departPos="0" departSpeed="0" from="-5059" id="216" to="3806"/>
 <trip depart="217.00" departLane="best" departPos="0" departSpeed="0" from="-4536" id="217" to="3144"/>
 <trip depart="218.00" departLane="best" departPos="0" departSpeed="0" from="2440" id="218" to="2662"/>
 <trip depart="219.00" departLane="best" departPos="0" departSpeed="0" from="-4516" id="219" to="4873"/>
 <trip depart="220.00" departLane="best" departPos="0" departSpeed="0" from="-5178" id="220" to="-2128"/>
 <trip depart="221.00" departLane="best" departPos="0" departSpeed="0" from="-3368" id="221" to="2020"/>
 <trip depart="222.00" departLane="best" departPos="0" departSpeed="0" from="1747" id="222" to="3368"/>
 <trip depart="223.00" departLane="best" departPos="0" departSpeed="0" from="1722" id="223" to="3687"/>
 <trip depart="224.00" departLane="best" departPos="0" departSpeed="0" from="-4479" id="224" to="2662"/>
 <trip depart="225.00" departLane="best" departPos="0" departSpeed="0" from="-4873" id="225" to="2502"/>
 <trip depart="226.00" departLane="best" departPos="0" departSpeed="0" from="-3220" id="226" to="5074"/>
 <trip depart="227.00" departLane="best" departPos="0" departSpeed="0" from="2228" id="227" to="4531"/>
 <trip depart="228.00" departLane="best" departPos="0" departSpeed="0" from="-5053" id="228" to="190"/>
 <trip depart="229.00" departLane="best" departPos="0" departSpeed="0" from="-3368" id="229" to="-1204"/>
 <trip depart="230.00" departLane="best" departPos="0" departSpeed="0" from="-4873" id="230" to="4718"/>
 <trip depart="231.00" departLane="best" departPos="0" departSpeed="0" from="1737" id="231" to="1610"/>
 <trip depart="232.00" departLane="best" departPos="0" departSpeed="0" from="-5064" id="232" to="4527"/>
 <trip depart="233.00" departLane="best" departPos="0" departSpeed="0" from="-4514" id="233" to="4718"/>
 <trip depart="234.00" departLane="best" departPos="0" departSpeed="0" from="-3934" id="234" to="-831"/>
 <trip depart="235.00" departLane="best" departPos="0" departSpeed="0" from="-5178" id="235" to="-1755"/>
 <trip depart="236.00" departLane="best" departPos="0" departSpeed="0" from="4514" id="236" to="3665"/>
 <trip depart="237.00" departLane="best" departPos="0" departSpeed="0" from="-3507" id="237" to="2440"/>
 <trip depart="238.00" departLane="best" departPos="0" departSpeed="0" from="-3587" id="238" to="4479"/>
 <trip depart="239.00" departLane="best" departPos="0" departSpeed="0" from="2660" id="239" to="3372"/>
 <trip depart="240.00" departLane="best" departPos="0" departSpeed="0" from="2468" id="240" to="3929"/>
 <trip depart="241.00" departLane="best" departPos="0" departSpeed="0" from="-852" id="241" to="3368"/>
 <trip depart="242.00" departLane="best" departPos="0" departSpeed="0" from="1470" id="242" to="2492"/>
 <trip depart="243.00" departLane="best" departPos="0" departSpeed="0" from="-4362" id="243" to="3922"/>
 <trip depart="244.00" departLane="best" departPos="0" departSpeed="0" from="-5059" id="244" to="-3930"/>
 <trip depart="245.00" departLane="best" departPos="0" departSpeed="0" from="-3665" id="245" to="-4534"/>
 <trip depart="246.00" departLane="best" departPos="0" departSpeed="0" from="1610" id="246" to="3200"/>
 <trip depart="247.00" departLane="best" departPos="0" departSpeed="0" from="-3055" id="247" to="2214"/>
 <trip depart="248.00" departLane="best" departPos="0" departSpeed="0" from="-2502" id="248" to="3236"/>
 <trip depart="249.00" departLane="best" departPos="0" departSpeed="0" from="444" id="249" to="4276"/>
 <trip depart="250.00" departLane="best" departPos="0" departSpeed="0" from="68" id="250" to="4362"/>
 <trip depart="251.00" departLane="best" departPos="0" departSpeed="0" from="4863" id="251" to="4316"/>
 <trip depart="252.00" departLane="best" departPos="0" departSpeed="0" from="-4741" id="252" to="-2612"/>
 <trip depart="253.00" departLane="best" departPos="0" departSpeed="0" from="-5070" id="253" to="5055"/>
 <trip depart="254.00" departLane="best" departPos="0" departSpeed="0" from="-5064" id="254" to="2660"/>
 <trip depart="255.00" departLane="best" departPos="0" departSpeed="0" from="-5178" id="255" to="5053"/>
 <trip depart="256.00" departLane="best" departPos="0" departSpeed="0" from="-2440" id="256" to="5178"/>
 <trip depart="257.00" departLane="best" departPos="0" departSpeed="0" from="3940" id="257" to="-1918"/>
 <trip depart="258.00" departLane="best" departPos="0" departSpeed="0" from="2173" id="258" to="5059"/>
 <trip depart="259.00" departLane="best" departPos="0" departSpeed="0" from="3660" id="259" to="-2344"/>
 <trip depart="260.00" departLane="best" departPos="0" departSpeed="0" from="45" id="260" to="5178"/>
 <trip depart="261.00" departLane="best" departPos="0" departSpeed="0" from="43" id="261" to="4716"/>
 <trip depart="262.00" departLane="best" departPos="0" departSpeed="0" from="4514" id="262" to="4527"/>
 <trip depart="263.00" departLane="best" departPos="0" departSpeed="0" from="-4718" id="263" to="-2440"/>
 <trip depart="264.00" departLane="best" departPos="0" departSpeed="0" from="3236" id="264" to="4747"/>
 <trip depart="265.00" departLane="best" departPos="0" departSpeed="0" from="-2372" id="265" to="-2192"/>
 <trip depart="266.00" departLane="best" departPos="0" departSpeed="0" from="2322" id="266" to="5074"/>
 <trip depart="267.00" departLane="best" departPos="0" departSpeed="0" from="3916" id="267" to="3220"/>
 <trip depart="268.00" departLane="best" departPos="0" departSpeed="0" from="-3372" id="268" to="-1994"/>
 <trip depart="269.00" departLane="best" departPos="0" departSpeed="0" from="4265" id="269" to="-3660"/>
 <trip depart="270.00" departLane="best" departPos="0" departSpeed="0" from="-2165" id="270" to="-2243"/>
 <trip depart="271.00" departLane="best" departPos="0" departSpeed="0" from="-4479" id="271" to="2173"/>
 <trip depart="272.00" departLane="best" departPos="0" departSpeed="0" from="-4718" id="272" to="2126"/>
 <trip depart="273.00" departLane="best" departPos="0" departSpeed="0" from="-4531" id="273" to="3236"/>