<?xml version="1.0" encoding="utf-8"?>
<routes>
 <trip depart="1.0" departLane="best" departSpeed="max" from="-30140997" id="rs_c000_i000_9" to="34776006"/>
 <trip depart="4.0" departLane="best" departSpeed="max" from="-26037066" id="rs_c000_i000_49" to="58423646"/>
 <trip depart="5.0" departLane="best" departSpeed="max" from="116049443#1" id="rs_c000_i000_59" to="26187755#0"/>
 <trip depart="6.0" departLane="best" departSpeed="max" from="96596615#1" id="rs_c000_i000_72" to="41882139"/>
 <trip depart="8.0" departLane="best" departSpeed="max" from="-52673136" id="rs_c000_i000_105" to="24429380-AddedOffRampEdge"/>
 <trip depart="8.0" departLane="best" departSpeed="max" from="-62116257" id="rs_c000_i000_98" to="16820737#0"/>
 <trip depart="14.0" departLane="best" departSpeed="max" from="222307221#0" id="rs_c000_i000_151" to="58423646"/>
 <trip depart="14.0" departLane="best" departSpeed="max" from="125828734" id="rs_c000_i001_15" to="17244796"/>
 <trip depart="16.0" departLane="best" departSpeed="max" from="-4233519" id="rs_c001_i000_25" to="72728808"/>
 <trip depart="16.0" departLane="best" departSpeed="max" from="4233684" id="rs_c000_i001_20" to="102332991"/>
 <trip depart="17.0" departLane="best" departSpeed="max" from="-71284395" id="rs_c000_i000_195" to="25980639"/>
 <trip depart="17.0" departLane="best" departSpeed="max" from="35722785#1" id="rs_c000_i000_202" to="16820737#0"/>
 <trip depart="19.0" departLane="best" departSpeed="max" from="10516147#0" id="rs_c000_i000_224" to="60752388"/>
 <trip depart="19.0" departLane="best" departSpeed="max" from="-94107509" id="rs_c000_i000_228" to="16820737#0"/>
 <trip depart="24.0" departLane="best" departSpeed="max" from="219528064" id="rs_c001_i001_7" to="72728806"/>
 <trip depart="25.0" departLane="best" departSpeed="max" from="-122529110" id="rs_c000_i000_296" to="26187755#0"/>
 <trip depart="25.0" departLane="best" departSpeed="max" from="-125351135" id="rs_c000_i000_299" to="26187755#0"/>
 <trip depart="25.0" departLane="best" departSpeed="max" from="56253839" id="rs_c000_i000_303" to="25980639"/>
 <trip depart="29.0" departLane="best" departSpeed="max" from="4246321" id="rs_c001_i000_49" to="530282943"/>
 <trip depart="32.0" departLane="best" departSpeed="max" from="-129785060" id="rs_c000_i000_376" to="25980639"/>
 <trip depart="33.0" departLane="best" departSpeed="max" from="290255300" id="rs_c000_i000_384" to="58423646"/>
 <trip depart="34.0" departLane="best" departSpeed="max" from="-8135855" id="rs_c001_i000_67" to="-886306666"/>
 <trip depart="34.0" departLane="best" departSpeed="max" from="1080298604" id="rs_c001_i000_68" to="72728808"/>
 <trip depart="35.0" departLane="best" departSpeed="max" from="-35155912" id="rs_c001_i000_69" to="35061798"/>
 <trip depart="35.0" departLane="best" departSpeed="max" from="35605874#2" id="rs_c000_i000_411" to="16820737#0"/>
 <trip depart="36.0" departLane="best" departSpeed="max" from="94124202" id="rs_c001_i000_46" to="96718342"/>
 <trip depart="37.0" departLane="best" departSpeed="max" from="-4238018#0" id="rs_c001_i000_78" to="102332987#0"/>
 <trip depart="38.0" departLane="best" departSpeed="max" from="-5067354#1" id="rs_c000_i000_437" to="34760663"/>
 <trip depart="40.0" departLane="best" departSpeed="max" from="-84639229#0" id="rs_c000_i000_455" to="39139679"/>
 <trip depart="41.0" departLane="best" departSpeed="max" from="4229427#1" id="rs_c001_i000_84" to="58768886#0"/>
 <trip depart="41.0" departLane="best" departSpeed="max" from="-579053759" id="rs_c000_i000_476" to="206350041"/>
 <trip depart="42.0" departLane="best" departSpeed="max" from="-72728809" id="rs_c001_i000_87" to="607800580"/>
 <trip depart="43.0" departLane="best" departSpeed="max" from="5137912" id="rs_c000_i002_6" to="34760663"/>
 <trip depart="45.0" departLane="best" departSpeed="max" from="-116049444#0" id="rs_c000_i000_504" to="26187755#0"/>
 <trip depart="45.0" departLane="best" departSpeed="max" from="-24423403#10" id="rs_c000_i000_508" to="144246396#1"/>
 <trip depart="48.0" departLane="best" departSpeed="max" from="-116049439#1" id="rs_c001_i000_104" to="26187757#1"/>
 <trip depart="51.0" departLane="best" departSpeed="max" from="695626572" id="rs_c000_i000_578" to="58422788#0-AddedOffRampEdge"/>
 <trip depart="51.0" departLane="best" departSpeed="max" from="-61997814#0" id="rs_c000_i000_584" to="16820737#0"/>
 <trip depart="52.0" departLane="best" departSpeed="max" from="-118869284#1" id="rs_c000_i000_598" to="144246396#1"/>
 <trip depart="53.0" departLane="best" departSpeed="max" from="30326559" id="rs_c000_i000_612" to="34760663"/>
 <trip depart="55.0" departLane="best" departSpeed="max" from="-61566225#0" id="rs_c000_i000_653" to="-94124135"/>
 <trip depart="56.0" departLane="best" departSpeed="max" from="4273624" id="rs_c000_i000_657" to="582286859#0"/>
 <trip depart="56.0" departLane="best" departSpeed="max" from="190721768#1" id="rs_c000_i000_665" to="34760663"/>
 <trip depart="57.0" departLane="best" departSpeed="max" from="61496433" id="rs_c000_i001_79" to="582286859#0"/>
 <trip depart="57.0" departLane="best" departSpeed="max" from="-290255303#2" id="rs_c000_i001_81" to="26187757#1"/>
 <trip depart="57.0" departLane="best" departSpeed="max" from="462046218" id="rs_c000_i000_673" to="38455846"/>
 <trip depart="58.0" departLane="best" departSpeed="max" from="-118155456#2" id="rs_c000_i000_685" to="26187757#1"/>
 <trip depart="60.0" departLane="best" departSpeed="max" from="8597240" id="rs_c001_i001_17" to="72728806"/>
 <trip depart="61.0" departLane="best" departSpeed="max" from="-212690606" id="rs_c000_i001_86" to="60752388"/>
 <trip depart="61.0" departLane="best" departSpeed="max" from="-100018567" id="rs_c001_i000_132" to="-94124135"/>
 <trip depart="63.0" departLane="best" departSpeed="max" from="61669586" id="rs_c000_i002_10" to="60752388"/>
 <trip depart="63.0" departLane="best" departSpeed="max" from="-5096970" id="rs_c001_i000_138" to="138914231#0"/>
 <trip depart="64.0" departLane="best" departSpeed="max" from="-4680630" id="rs_c001_i000_143" to="61102971#1"/>
 <trip depart="65.0" departLane="best" departSpeed="max" from="-4872089" id="rs_c000_i000_763" to="34760663"/>
 <trip depart="65.0" departLane="best" departSpeed="max" from="-203752765" id="rs_c001_i000_145" to="138914231#0"/>
 <trip depart="67.0" departLane="best" departSpeed="max" from="-84017983" id="rs_c000_i001_97" to="35062429#0"/>
 <trip depart="69.0" departLane="best" departSpeed="max" from="364419352#0" id="rs_c000_i000_810" to="133114633"/>
 <trip depart="70.0" departLane="best" departSpeed="max" from="-32016029#2" id="rs_c001_i000_156" to="34760663"/>
 <trip depart="73.0" departLane="best" departSpeed="max" from="71284390#0" id="rs_c000_i001_104" to="206350041"/>
 <trip depart="73.0" departLane="best" departSpeed="max" from="-10516147#2" id="rs_c000_i001_105" to="-124537762"/>
 <trip depart="73.0" departLane="best" departSpeed="max" from="333338273" id="rs_c000_i000_856" to="116350100"/>
 <trip depart="73.0" departLane="best" departSpeed="max" from="-10405223#0" id="rs_c001_i000_160" to="530282943"/>
 <trip depart="74.0" departLane="best" departSpeed="max" from="-95100609" id="rs_c000_i000_864" to="58423646"/>
 <trip depart="74.0" departLane="best" departSpeed="max" from="24487041" id="rs_c000_i000_865" to="-330920155"/>
 <trip depart="74.0" departLane="best" departSpeed="max" from="100016823#2" id="rs_c000_i000_866" to="30707088#0"/>
 <trip depart="75.0" departLane="best" departSpeed="max" from="-328253309#0" id="rs_c000_i001_110" to="58422788#0-AddedOffRampEdge"/>
 <trip depart="75.0" departLane="best" departSpeed="max" from="-10436546" id="rs_c001_i000_164" to="35062429#0"/>
 <trip depart="76.0" departLane="best" departSpeed="max" from="26040294#1" id="rs_c000_i000_880" to="58423646"/>
 <trip depart="76.0" departLane="best" departSpeed="max" from="-10425858" id="rs_c000_i000_882" to="139124541#0"/>
 <trip depart="76.0" departLane="best" departSpeed="max" from="117099159#2" id="rs_c000_i000_885" to="58423646"/>
 <trip depart="78.0" departLane="best" departSpeed="max" from="87397777" id="rs_c000_i000_896" to="17244796"/>
 <trip depart="79.0" departLane="best" departSpeed="max" from="-63322102#1" id="rs_c000_i000_918" to="25980639"/>
 <trip depart="82.0" departLane="best" departSpeed="max" from="-5065866#1" id="rs_c000_i000_941" to="34587265#0"/>
 <trip depart="82.0" departLane="best" departSpeed="max" from="-136721672" id="rs_c000_i000_947" to="26187757#1"/>
 <trip depart="84.0" departLane="best" departSpeed="max" from="-23197959" id="rs_c000_i000_966" to="116350100"/>
 <trip depart="85.0" departLane="best" departSpeed="max" from="-188890214" id="rs_c000_i000_971" to="17244796"/>
 <trip depart="86.0" departLane="best" departSpeed="max" from="4353778#0" id="rs_c000_i000_982" to="58423646"/>
 <trip depart="89.0" departLane="best" departSpeed="max" from="358697049#1" id="rs_c000_i000_1020" to="133114633"/>
 <trip depart="90.0" departLane="best" departSpeed="max" from="51340803#0" id="rs_c001_i000_189" to="35062429#0"/>
 <trip depart="91.0" departLane="best" departSpeed="max" from="-85562446#0" id="rs_c001_i000_197" to="39139679"/>
 <trip depart="92.0" departLane="best" departSpeed="max" from="-26127182#1" id="rs_c000_i000_1060" to="26187755#0"/>
 <trip depart="93.0" departLane="best" departSpeed="max" from="4238091#1" id="rs_c000_i000_586" to="102282710"/>
 <trip depart="93.0" departLane="best" departSpeed="max" from="24423403#5" id="rs_c000_i000_1064" to="144246396#1"/>
 <trip depart="93.0" departLane="best" departSpeed="max" from="4643592" id="rs_c000_i001_133" to="17244796"/>
 <trip depart="97.0" departLane="best" departSpeed="max" from="-24423403#7" id="rs_c000_i000_1112" to="144246396#1"/>
 <trip depart="97.0" departLane="best" departSpeed="max" from="-30471057#0" id="rs_c000_i000_1122" to="102332987#0"/>
 <trip depart="98.0" departLane="best" departSpeed="max" from="-212694593#3" id="rs_c000_i002_19" to="26187755#0"/>
 <trip depart="98.0" departLane="best" departSpeed="max" from="364419352#0" id="rs_c000_i001_141" to="102332987#0"/>
 <trip depart="100.0" departLane="best" departSpeed="max" from="84017451#0" id="rs_c000_i000_1143" to="-330920155"/>
 <trip depart="100.0" departLane="best" departSpeed="max" from="-328813517" id="rs_c001_i000_213" to="41882139"/>
 <trip depart="101.0" departLane="best" departSpeed="max" from="137996244#0" id="rs_c000_i000_1157" to="58423646"/>
 <trip depart="103.0" departLane="best" departSpeed="max" from="-122529100" id="rs_c000_i000_1177" to="26187755#0"/>
 <trip depart="105.0" departLane="best" departSpeed="max" from="-301127377" id="rs_c000_i000_1200" to="26187757#1"/>
 <trip depart="107.0" departLane="best" departSpeed="max" from="-34777320" id="rs_c000_i000_1213" to="26187757#1"/>
 <trip depart="107.0" departLane="best" departSpeed="max" from="-4485423" id="rs_c000_i000_1216" to="117626381"/>
 <trip depart="107.0" departLane="best" departSpeed="max" from="-333144425" id="rs_c000_i002_23" to="60752388"/>
 <trip depart="108.0" departLane="best" departSpeed="max" from="4238091#1" id="rs_c000_i000_937" to="102332987#0"/>
 <trip depart="109.0" departLane="best" departSpeed="max" from="6935285#0" id="rs_c000_i000_1228" to="102332987#0"/>
 <trip depart="112.0" departLane="best" departSpeed="max" from="4952735#0" id="rs_c000_i000_1268" to="102332987#0"/>
 <trip depart="112.0" departLane="best" departSpeed="max" from="4246321" id="rs_c001_i000_233" to="530282943"/>
 <trip depart="119.0" departLane="best" departSpeed="max" from="-212694593#3" id="rs_c000_i000_1201" to="26187755#0"/>
 <trip depart="120.0" departLane="best" departSpeed="max" from="125684101#0" id="rs_c000_i001_171" to="530282943"/>
 <trip depart="120.0" departLane="best" departSpeed="max" from="-117643624" id="rs_c000_i000_1352" to="25980639"/>
 <trip depart="121.0" departLane="best" departSpeed="max" from="-95937723" id="rs_c000_i000_122" to="26187755#0"/>
 <trip depart="121.0" departLane="best" departSpeed="max" from="5091199" id="rs_c001_i000_246" to="34760663"/>
 <trip depart="122.0" departLane="best" departSpeed="max" from="42793238#0" id="rs_c000_i000_1376" to="117654824#0"/>
 <trip depart="123.0" departLane="best" departSpeed="max" from="332195301" id="rs_c000_i000_1400" to="35062429#0"/>
 <trip depart="124.0" departLane="best" departSpeed="max" from="-122529094#5" id="rs_c000_i000_1409" to="144246396#1"/>
 <trip depart="124.0" departLane="best" departSpeed="max" from="4244655" id="rs_c000_i000_1413" to="102332991"/>
 <trip depart="124.0" departLane="best" departSpeed="max" from="310738357" id="rs_c001_i000_253" to="582286859#0"/>
 <trip depart="127.0" departLane="best" departSpeed="max" from="-333156359#0" id="rs_c000_i001_191" to="116350100"/>
 <trip depart="128.0" departLane="best" departSpeed="max" from="-118155453" id="rs_c000_i001_193" to="58423646"/>
 <trip depart="129.0" departLane="best" departSpeed="max" from="-39316011#1" id="rs_c000_i000_1471" to="286340282"/>
 <trip depart="130.0" departLane="best" departSpeed="max" from="-9604697" id="rs_c000_i000_1478" to="-330920155"/>
 <trip depart="131.0" departLane="best" departSpeed="max" from="-61371680#0" id="rs_c000_i000_1484" to="41882139"/>
 <trip depart="134.0" departLane="best" departSpeed="max" from="-117099153" id="rs_c000_i000_1508" to="30707088#0"/>
 <trip depart="136.0" departLane="best" departSpeed="max" from="-76180072" id="rs_c000_i000_1535_part0" to="34587265#0"/>
 <trip depart="137.0" departLane="best" departSpeed="max" from="-314424813" id="rs_c000_i000_1534" to="41882139"/>
 <trip depart="137.0" departLane="best" departSpeed="max" from="-367319945#1" id="rs_c000_i000_1543" to="102332987#0"/>
 <trip depart="139.0" departLane="best" departSpeed="max" from="703967772" id="rs_c000_i001_206" to="72728808"/>
 <trip depart="140.0" departLane="best" departSpeed="max" from="-83510232#0" id="rs_c001_i000_282_part0" to="206355020"/>
 <trip depart="142.0" departLane="best" departSpeed="max" from="26085515#5" id="rs_c000_i000_1609" to="58423646"/>
 <trip depart="143.0" departLane="best" departSpeed="max" from="4492786" id="rs_c000_i000_1621" to="102332991"/>
 <trip depart="144.0" departLane="best" departSpeed="max" from="-6927021" id="rs_c001_i000_291" to="102332987#0"/>
 <trip depart="145.0" departLane="best" departSpeed="max" from="-80374106" id="rs_c000_i000_1633" to="29508367"/>
 <trip depart="145.0" departLane="best" departSpeed="max" from="285621683" id="rs_c000_i000_1638" to="138914231#0"/>
 <trip depart="148.0" departLane="best" departSpeed="max" from="-95937723" id="rs_c000_i000_551" to="26187755#0"/>
 <trip depart="149.0" departLane="best" departSpeed="max" from="30529010#1" id="rs_c000_i001_219" to="5235877"/>
 <trip depart="150.0" departLane="best" departSpeed="max" from="-217696289" id="rs_c000_i000_1702" to="35062429#0"/>
 <trip depart="151.0" departLane="best" departSpeed="max" from="-28918381#4" id="rs_c000_i000_1713" to="16820737#0"/>
 <trip depart="154.0" departLane="best" departSpeed="max" from="-95937943#2" id="rs_c000_i000_1419_part1" to="24428921"/>
 <trip depart="156.0" departLane="best" departSpeed="max" from="-28840232#0" id="rs_c000_i000_1756" to="58423646"/>
 <trip depart="160.0" departLane="best" departSpeed="max" from="-6935800#0" id="rs_c000_i000_1806" to="102332987#0"/>
 <trip depart="160.0" departLane="best" departSpeed="max" from="-10502291#1" id="rs_c000_i001_240" to="5235877"/>
 <trip depart="162.0" departLane="best" departSpeed="max" from="94124202" id="rs_c000_i000_1810" to="17244796"/>
 <trip depart="164.0" departLane="best" departSpeed="max" from="-118869284#1" id="rs_c000_i000_1842" to="144246396#1"/>
 <trip depart="164.0" departLane="best" departSpeed="max" from="-335084841#0" id="rs_c000_i002_40" to="427173722"/>
 <trip depart="166.0" departLane="best" departSpeed="max" from="117626824" id="rs_c000_i000_1869" to="30707088#0"/>
 <trip depart="167.0" departLane="best" departSpeed="max" from="-5234280#0" id="rs_c000_i000_1879" to="38455846"/>
 <trip depart="168.0" departLane="best" departSpeed="max" from="100018570#1" id="rs_c001_i000_336" to="34776006"/>
 <trip depart="169.0" departLane="best" departSpeed="max" from="-23119642" id="rs_c000_i000_1898" to="16820737#0"/>
 <trip depart="169.0" departLane="best" departSpeed="max" from="-10357406#1" id="rs_c001_i000_338" to="607800580"/>
 <trip depart="171.0" departLane="best" departSpeed="max" from="5234587" id="rs_c000_i001_263" to="35062429#0"/>
 <trip depart="171.0" departLane="best" departSpeed="max" from="462046218" id="rs_c001_i000_340" to="38455846"/>
 <trip depart="172.0" departLane="best" departSpeed="max" from="-24423403#10" id="rs_c000_i001_252" to="144246396#1"/>
 <trip depart="172.0" departLane="best" departSpeed="max" from="5095197#1" id="rs_c000_i001_264" to="34760663"/>
 <trip depart="176.0" departLane="best" departSpeed="max" from="-366308474" id="rs_c000_i000_1964" to="-94124135"/>
 <trip depart="177.0" departLane="best" departSpeed="max" from="-62071809#1" id="rs_c000_i000_1973" to="41882139"/>
 <trip depart="178.97" departLane="best" departSpeed="max" from="133113957#0" id="rs_c001_i000_107" to="72728808"/>
 <trip depart="181.0" departLane="best" departSpeed="max" from="-82259070#0" id="rs_c000_i000_2011" to="41882139"/>
 <trip depart="181.0" departLane="best" departSpeed="max" from="118869284#0" id="rs_c000_i000_2018" to="26187755#0"/>
 <trip depart="182.0" departLane="best" departSpeed="max" from="-10426011#1" id="rs_c000_i001_276" to="5235877"/>
 <trip depart="184.0" departLane="best" departSpeed="max" from="10426113#0" id="rs_c000_i001_279_part0" to="5235877"/>
 <trip depart="185.0" departLane="best" departSpeed="max" from="5234587" id="rs_c001_i000_361" to="35062429#0"/>
 <trip depart="187.0" departLane="best" departSpeed="max" from="-95937723" id="rs_c000_i000_1137" to="26187755#0"/>
 <trip depart="188.0" departLane="best" departSpeed="max" from="-125589533" id="rs_c000_i000_2081" to="530282943"/>
 <trip depart="191.0" departLane="best" departSpeed="max" from="-95937723" id="rs_c000_i000_424" to="26187755#0"/>
 <trip depart="197.0" departLane="best" departSpeed="max" from="-59683236#1" id="rs_c000_i000_2163" to="58425043"/>
 <trip depart="198.0" departLane="best" departSpeed="max" from="-5137917" id="rs_c000_i001_296" to="25980639"/>
 <trip depart="199.0" departLane="best" departSpeed="max" from="10377170" id="rs_c000_i000_2185" to="530282943"/>
 <trip depart="199.0" departLane="best" departSpeed="max" from="83163132" id="rs_c001_i000_380" to="72728808"/>
 <trip depart="200.0" departLane="best" departSpeed="max" from="-95937723" id="rs_c000_i000_1362" to="144246396#1"/>
 <trip depart="200.0" departLane="best" departSpeed="max" from="-333156359#4" id="rs_c001_i000_381" to="60752388"/>
 <trip depart="201.0" departLane="best" departSpeed="max" from="-929213813" id="rs_c000_i000_2221" to="58423646"/>
 <trip depart="203.0" departLane="best" departSpeed="max" from="462046218" id="rs_c000_i000_2238" to="38455846"/>
 <trip depart="205.45" departLane="best" departSpeed="max" from="-445997357#0" id="rs_c000_i000_593" to="34760663"/>
 <trip depart="207.0" departLane="best" departSpeed="max" from="-183035440#0" id="rs_c000_i000_2295" to="34776006"/>
 <trip depart="212.0" departLane="best" departSpeed="max" from="4238091#1" id="rs_c000_i000_1387" to="102332987#0"/>
 <trip depart="212.0" departLane="best" departSpeed="max" from="-34149612#0" id="rs_c000_i000_2338" to="58423646"/>
 <trip depart="214.75" departLane="best" departSpeed="max" from="133113949" id="rs_c001_i001_29" to="102332987#0"/>
 <trip depart="215.0" departLane="best" departSpeed="max" from="25361892#3" id="rs_c001_i000_417" to="206355020"/>
 <trip depart="216.0" departLane="best" departSpeed="max" from="-95952109" id="rs_c001_i000_422" to="72728808"/>
 <trip depart="218.0" departLane="best" departSpeed="max" from="4680630" id="rs_c000_i000_2403" to="41882139"/>
 <trip depart="219.0" departLane="best" departSpeed="max" from="906802009" id="rs_c001_i000_425" to="72728806"/>
 <trip depart="219.0" departLane="best" departSpeed="max" from="-26165754#2" id="rs_c001_i000_427" to="58423646"/>
 <trip depart="221.0" departLane="best" departSpeed="max" from="-8058345" id="rs_c001_i000_433" to="-5137908#0"/>
 <trip depart="222.0" departLane="best" departSpeed="max" from="-980528933#1" id="rs_c001_i000_435" to="51667067#0"/>
 <trip depart="224.0" departLane="best" departSpeed="max" from="-26127182#2" id="rs_c000_i000_2475" to="26187755#0"/>
 <trip depart="231.0" departLane="best" departSpeed="max" from="-24031434#0" id="rs_c000_i000_1849" to="116350100"/>
 <trip depart="232.0" departLane="best" departSpeed="max" from="4229427#1" id="rs_c000_i000_2546" to="58422788#0-AddedOffRampEdge"/>
 <trip depart="235.0" departLane="best" departSpeed="max" from="6935285#0" id="rs_c001_i000_458" to="102332987#0"/>
 <trip depart="236.0" departLane="best" departSpeed="max" from="-95937723" id="rs_c000_i000_1018" to="26187755#0"/>
 <trip depart="238.0" departLane="best" departSpeed="max" from="10516236" id="rs_c000_i000_2619" to="58422330"/>
 <trip depart="238.0" departLane="best" departSpeed="max" from="-237837493#0" id="rs_c000_i000_2622" to="39139679"/>
 <trip depart="241.0" departLane="best" departSpeed="max" from="-20179292#0" id="rs_c000_i000_2655" to="530282943"/>
 <trip depart="242.0" departLane="best" departSpeed="max" from="-10426171#1" id="rs_c001_i000_473" to="35062429#0"/>
 <trip depart="242.0" departLane="best" departSpeed="max" from="97097111#1" id="rs_c001_i001_59" to="41882139"/>
 <trip depart="242.0" departLane="best" departSpeed="max" from="-10516147#0" id="rs_c000_i000_2662" to="-124537762"/>
 <trip depart="242.12" departLane="best" departSpeed="max" from="582286858#1" id="rs_c001_i001_10" to="51667067#0"/>
 <trip depart="242.96" departLane="best" departSpeed="max" from="582286858#1" id="rs_c001_i000_61" to="51667067#0"/>
 <trip depart="243.0" departLane="best" departSpeed="max" from="488345046" id="rs_c000_i000_2667" to="102332987#0"/>
 <trip depart="244.0" departLane="best" departSpeed="max" from="212687129#2" id="rs_c001_i000_475" to="35062429#0"/>
 <trip depart="244.0" departLane="best" departSpeed="max" from="-45873417#0" id="rs_c000_i001_362" to="34776006"/>
 <trip depart="246.0" departLane="best" departSpeed="max" from="-10374120" id="rs_c001_i001_60" to="530282943"/>
 <trip depart="246.0" departLane="best" departSpeed="max" from="24423403#2" id="rs_c000_i000_2701" to="144246396#1"/>
 <trip depart="248.0" departLane="best" departSpeed="max" from="4238091#1" id="rs_c000_i000_2218" to="102332987#0"/>
 <trip depart="248.0" departLane="best" departSpeed="max" from="-10516236" id="rs_c000_i000_2728" to="-124537762"/>
 <trip depart="248.56" departLane="best" departSpeed="max" from="30714753#0" id="rs_c000_i000_987" to="210192500"/>
 <trip depart="249.0" departLane="best" departSpeed="max" from="-117625588" id="rs_c000_i000_2736" to="34776006"/>
 <trip depart="250.0" departLane="best" departSpeed="max" from="59699456" id="rs_c000_i000_2742" to="39139679"/>
 <trip depart="251.0" departLane="best" departSpeed="max" from="-10425883" id="rs_c000_i000_2756" to="35062429#0"/>
 <trip depart="252.0" departLane="best" departSpeed="max" from="84017451#1" id="rs_c001_i000_489" to="41882139"/>
 <trip depart="255.0" departLane="best" departSpeed="max" from="34149613" id="rs_c000_i001_378" to="26187757#1"/>
 <trip depart="256.0" departLane="best" departSpeed="max" from="61669586" id="rs_c001_i000_496" to="60752388"/>
 <trip depart="257.0" departLane="best" departSpeed="max" from="-71332919" id="rs_c000_i000_2825" to="58422788#0-AddedOffRampEdge"/>
 <trip depart="258.0" departLane="best" departSpeed="max" from="211042302#0" id="rs_c000_i000_2781" to="133114633"/>
 <trip depart="259.0" departLane="best" departSpeed="max" from="125809105" id="rs_c000_i000_2847" to="-94124135"/>
 <trip depart="259.0" departLane="best" departSpeed="max" from="5067786#1" id="rs_c000_i001_389" to="25980639"/>
 <trip depart="261.0" departLane="best" departSpeed="max" from="-14573382#1" id="rs_c000_i001_392" to="35062429#0"/>
 <trip depart="261.61" departLane="best" departSpeed="max" from="286138967" id="rs_c000_i000_1286" to="29508371#0"/>
 <trip depart="262.0" departLane="best" departSpeed="max" from="-63134322#1" id="rs_c000_i001_400" to="25980639"/>
 <trip depart="265.0" departLane="best" departSpeed="max" from="-10372364#0" id="rs_c000_i001_402" to="441826617"/>
 <trip depart="266.0" departLane="best" departSpeed="max" from="94124202" id="rs_c000_i000_2890_part0" to="58422788#0-AddedOffRampEdge"/>
 <trip depart="267.0" departLane="best" departSpeed="max" from="-290255303#2" id="rs_c000_i000_2943" to="26187757#1"/>
 <trip depart="268.0" departLane="best" departSpeed="max" from="-301127378" id="rs_c000_i000_2948" to="26187757#1"/>
 <trip depart="268.51" departLane="best" departSpeed="max" from="133113957#0" id="rs_c001_i000_220" to="102332987#0"/>
 <trip depart="269.0" departLane="best" departSpeed="max" from="-95937723" id="rs_c000_i002_31" to="26187755#0"/>
 <trip depart="272.0" departLane="best" departSpeed="max" from="24423403#1" id="rs_c000_i001_412" to="26187755#0"/>
 <trip depart="273.0" departLane="best" departSpeed="max" from="94124202" id="rs_c001_i000_345" to="96718342"/>
 <trip depart="274.0" departLane="best" departSpeed="max" from="358697049#2" id="rs_c000_i000_3033" to="102332987#0"/>
 <trip depart="275.0" departLane="best" departSpeed="max" from="-10436546" id="rs_c001_i000_523" to="35062429#0"/>
 <trip depart="275.0" departLane="best" departSpeed="max" from="-16345605#1" id="rs_c000_i000_3041" to="139124541#0"/>
 <trip depart="278.0" departLane="best" departSpeed="max" from="-193684941" id="rs_c000_i000_3060" to="133114633"/>
 <trip depart="278.0" departLane="best" departSpeed="max" from="56253839" id="rs_c000_i000_3068" to="58425043"/>
 <trip depart="278.0" departLane="best" departSpeed="max" from="-5065975" id="rs_c000_i000_3069" to="34760663"/>
 <trip depart="279.0" departLane="best" departSpeed="max" from="-16345605#0" id="rs_c000_i001_424_part0" to="139124541#0"/>
 <trip depart="280.0" departLane="best" departSpeed="max" from="94124202" id="rs_c000_i001_369" to="16820737#0"/>
 <trip depart="282.0" departLane="best" departSpeed="max" from="-95100609" id="rs_c000_i000_3122" to="24428921"/>
 <trip depart="283.0" departLane="best" departSpeed="max" from="703967713" id="rs_c001_i000_536" to="72728808"/>
 <trip depart="283.0" departLane="best" departSpeed="max" from="-6933813" id="rs_c000_i000_3133" to="102332987#0"/>
 <trip depart="283.0" departLane="best" departSpeed="max" from="4952788" id="rs_c000_i001_431" to="5235877"/>
 <trip depart="284.47" departLane="best" departSpeed="max" from="30714753#0" id="rs_c000_i000_684" to="210192500"/>
 <trip depart="288.0" departLane="best" departSpeed="max" from="-40109005#1" id="rs_c001_i000_547" to="206350041"/>
 <trip depart="288.0" departLane="best" departSpeed="max" from="-125351162#0" id="rs_c000_i000_3195" to="26187755#0"/>
 <trip depart="293.0" departLane="best" departSpeed="max" from="237386917#0" id="rs_c000_i000_3233" to="-330920155"/>
 <trip depart="294.0" departLane="best" departSpeed="max" from="-10436546" id="rs_c000_i000_3237_part0" to="5235877"/>
 <trip depart="295.0" departLane="best" departSpeed="max" from="4643592" id="rs_c000_i000_3244" to="72728808"/>
 <trip depart="296.0" departLane="best" departSpeed="max" from="286243202" id="rs_c000_i000_3259" to="25980639"/>
 <trip depart="298.0" departLane="best" departSpeed="max" from="94124202" id="rs_c000_i000_2648" to="16820737#0"/>
 <trip depart="299.0" departLane="best" departSpeed="max" from="28539749#0" id="rs_c001_i000_566" to="34760663"/>
 <trip depart="299.0" departLane="best" departSpeed="max" from="-4872089" id="rs_c001_i000_569" to="34760663"/>
 <trip depart="300.0" departLane="best" departSpeed="max" from="-193684941" id="rs_c000_i000_3297" to="102332987#0"/>
 <trip depart="302.0" departLane="best" departSpeed="max" from="-10405223#0" id="rs_c001_i000_575" to="530282943"/>
 <trip depart="302.0" departLane="best" departSpeed="max" from="-75565714" id="rs_c001_i000_578" to="61720106"/>
 <trip depart="303.0" departLane="best" departSpeed="max" from="-138350778#0" id="rs_c000_i000_3335" to="25980639"/>
 <trip depart="303.28" departLane="best" departSpeed="max" from="30714753#0" id="rs_c000_i002_21" to="58422788#0-AddedOffRampEdge"/>
 <trip depart="304.0" departLane="best" departSpeed="max" from="-125589533" id="rs_c001_i000_582" to="530282943"/>
 <trip depart="305.0" departLane="best" departSpeed="max" from="-26040356#1" id="rs_c000_i000_3360" to="58423646"/>
 <trip depart="305.24" departLane="best" departSpeed="max" from="96718348#0" id="rs_c000_i000_959" to="102332987#0"/>
 <trip depart="306.0" departLane="best" departSpeed="max" from="-864640789" id="rs_c000_i002_66" to="41882139"/>
 <trip depart="307.0" departLane="best" departSpeed="max" from="807837521#2" id="rs_c000_i000_3275" to="25980639"/>
 <trip depart="309.0" departLane="best" departSpeed="max" from="-314422898#0" id="rs_c000_i000_3396" to="39139679"/>
 <trip depart="312.0" departLane="best" departSpeed="max" from="96934606" id="rs_c000_i000_3435" to="102332987#0"/>
 <trip depart="312.0" departLane="best" departSpeed="max" from="-24049140#1" id="rs_c000_i001_481" to="-124537762"/>
 <trip depart="313.33" departLane="best" departSpeed="max" from="286138967" id="rs_c000_i000_1328" to="29508371#0"/>
 <trip depart="315.0" departLane="best" departSpeed="max" from="-14573382#2" id="rs_c000_i000_3463" to="139124541#0"/>
 <trip depart="316.0" departLane="best" departSpeed="max" from="94124202" id="rs_c000_i001_467" to="17244796"/>
 <trip depart="317.0" departLane="best" departSpeed="max" from="-212694593#3" id="rs_c000_i000_3350" to="144246396#1"/>
 <trip depart="318.0" departLane="best" departSpeed="max" from="84656707#1" id="rs_c000_i000_3508" to="39139679"/>