<?xml version="1.0" encoding="utf-8"?>
<routes>
 <trip depart="1.0" departLane="best" departSpeed="max" from="321098632#1" id="rs_c001_i000_0" to="126140573#0"/>
 <trip depart="3.0" departLane="best" departSpeed="max" from="-10363555" id="rs_c000_i000_28" to="-10363546"/>
 <trip depart="4.0" departLane="best" departSpeed="max" from="-38807023" id="rs_c000_i000_48" to="-210457775#1"/>
 <trip depart="4.0" departLane="best" departSpeed="max" from="-26037066" id="rs_c000_i000_49" to="-118155453"/>
 <trip depart="5.0" departLane="best" departSpeed="max" from="-125351162#1" id="rs_c000_i001_6" to="-24423403#9"/>
 <trip depart="5.0" departLane="best" departSpeed="max" from="-126709272#1" id="rs_c000_i000_57" to="126709272#1"/>
 <trip depart="6.0" departLane="best" departSpeed="max" from="96596615#1" id="rs_c000_i000_72" to="97117877"/>
 <trip depart="7.0" departLane="best" departSpeed="max" from="5231759" id="rs_c000_i000_81" to="26368085"/>
 <trip depart="8.0" departLane="best" departSpeed="max" from="-125351135" id="rs_c001_i000_12" to="-95937728#3"/>
 <trip depart="8.0" departLane="best" departSpeed="max" from="-52673136" id="rs_c000_i000_105" to="-61367454#0"/>
 <trip depart="10.0" departLane="best" departSpeed="max" from="-10420635#1" id="rs_c000_i001_10" to="53277461#3"/>
 <trip depart="12.0" departLane="best" departSpeed="max" from="5067770#1" id="rs_c000_i000_138" to="-235378181"/>
 <trip depart="12.0" departLane="best" departSpeed="max" from="-100073149" id="rs_c000_i002_1" to="232003927#1"/>
 <trip depart="13.0" departLane="best" departSpeed="max" from="-117654815#1" id="rs_c000_i000_148" to="-26295654#3"/>
 <trip depart="14.0" departLane="best" departSpeed="max" from="222307221#0" id="rs_c000_i000_151" to="222307221#1"/>
 <trip depart="14.0" departLane="best" departSpeed="max" from="125828734" id="rs_c000_i001_15" to="340206715"/>
 <trip depart="16.0" departLane="best" departSpeed="max" from="-4233519" id="rs_c001_i000_25" to="-4216414#0"/>
 <trip depart="16.0" departLane="best" departSpeed="max" from="4233684" id="rs_c000_i001_20" to="183236316"/>
 <trip depart="17.0" departLane="best" departSpeed="max" from="-137996247" id="rs_c000_i000_194" to="-4353778#2"/>
 <trip depart="17.0" departLane="best" departSpeed="max" from="-71284395" id="rs_c000_i000_195" to="-295993399"/>
 <trip depart="17.0" departLane="best" departSpeed="max" from="-212690606" id="rs_c000_i000_197" to="-10508541"/>
 <trip depart="17.0" departLane="best" departSpeed="max" from="35722785#1" id="rs_c000_i000_202" to="34733209"/>
 <trip depart="18.0" departLane="best" departSpeed="max" from="-63134322#1" id="rs_c001_i000_31" to="-51722317"/>
 <trip depart="18.0" departLane="best" departSpeed="max" from="26959985" id="rs_c000_i000_209" to="362993459"/>
 <trip depart="19.0" departLane="best" departSpeed="max" from="10516147#0" id="rs_c000_i000_224" to="10516236"/>
 <trip depart="19.0" departLane="best" departSpeed="max" from="-94107509" id="rs_c000_i000_228" to="-96597366#0"/>
 <trip depart="19.0" departLane="best" departSpeed="max" from="77606148#1" id="rs_c000_i000_231" to="14579253"/>
 <trip depart="20.0" departLane="best" departSpeed="max" from="-61367432" id="rs_c000_i000_245" to="-61281861"/>
 <trip depart="21.0" departLane="best" departSpeed="max" from="-10426053#1" id="rs_c001_i000_35" to="10426000"/>
 <trip depart="22.0" departLane="best" departSpeed="max" from="-45578880" id="rs_c000_i000_260" to="-4341507#0"/>
 <trip depart="23.0" departLane="best" departSpeed="max" from="-122529098#1" id="rs_c000_i000_277" to="4353778#0"/>
 <trip depart="25.0" departLane="best" departSpeed="max" from="-367319945#0" id="rs_c000_i000_295" to="151911876"/>
 <trip depart="25.0" departLane="best" departSpeed="max" from="-122529110" id="rs_c000_i000_296" to="169313833#1"/>
 <trip depart="26.0" departLane="best" departSpeed="max" from="43263108" id="rs_c001_i000_42" to="-61367459"/>
 <trip depart="29.0" departLane="best" departSpeed="max" from="4246321" id="rs_c001_i000_49" to="-4246322#0"/>
 <trip depart="30.0" departLane="best" departSpeed="max" from="-324547492" id="rs_c001_i000_51" to="-316340789"/>
 <trip depart="32.0" departLane="best" departSpeed="max" from="-129785060" id="rs_c000_i000_376" to="-350148486"/>
 <trip depart="33.0" departLane="best" departSpeed="max" from="290255300" id="rs_c000_i000_384" to="136721679#2"/>
 <trip depart="34.0" departLane="best" departSpeed="max" from="-8135855" id="rs_c001_i000_67" to="-30471449"/>
 <trip depart="35.0" departLane="best" departSpeed="max" from="-35155912" id="rs_c001_i000_69" to="338862108#2"/>
 <trip depart="36.0" departLane="best" departSpeed="max" from="94124202" id="rs_c001_i000_46" to="96559143"/>
 <trip depart="37.0" departLane="best" departSpeed="max" from="-4238018#0" id="rs_c001_i000_78" to="-192596483"/>
 <trip depart="37.0" departLane="best" departSpeed="max" from="4238028#0" id="rs_c001_i000_79" to="4238027"/>
 <trip depart="38.0" departLane="best" departSpeed="max" from="-5067354#1" id="rs_c000_i000_437" to="-5067354#0"/>
 <trip depart="41.0" departLane="best" departSpeed="max" from="4229427#1" id="rs_c001_i000_84" to="4229427#2"/>
 <trip depart="42.0" departLane="best" departSpeed="max" from="-72728809" id="rs_c001_i000_87" to="27246253"/>
 <trip depart="43.0" departLane="best" departSpeed="max" from="-122529102#1" id="rs_c001_i002_1" to="122529102#1"/>
 <trip depart="43.0" departLane="best" departSpeed="max" from="-10426204#1" id="rs_c001_i000_90" to="-10426204#0"/>
 <trip depart="43.0" departLane="best" departSpeed="max" from="5137912" id="rs_c000_i002_6" to="-75656307#0"/>
 <trip depart="43.0" departLane="best" departSpeed="max" from="-95212556" id="rs_c000_i000_487" to="-96809695#2"/>
 <trip depart="45.0" departLane="best" departSpeed="max" from="145737637#0" id="rs_c001_i000_97" to="145737637#1"/>
 <trip depart="45.0" departLane="best" departSpeed="max" from="-116049444#0" id="rs_c000_i000_504" to="-212694593#3"/>
 <trip depart="47.0" departLane="best" departSpeed="max" from="-136721671" id="rs_c000_i000_533" to="-132047178"/>
 <trip depart="48.0" departLane="best" departSpeed="max" from="-116049439#1" id="rs_c001_i000_104" to="-929213813"/>
 <trip depart="49.0" departLane="best" departSpeed="max" from="-286243203#1" id="rs_c000_i000_554" to="-286243203#0"/>
 <trip depart="51.0" departLane="best" departSpeed="max" from="-61997814#0" id="rs_c000_i000_584" to="-233171094#0"/>
 <trip depart="52.0" departLane="best" departSpeed="max" from="-118869284#1" id="rs_c000_i000_598" to="122529094#4"/>
 <trip depart="52.0" departLane="best" departSpeed="max" from="138630786" id="rs_c001_i000_113" to="-25542565#1"/>
 <trip depart="53.0" departLane="best" departSpeed="max" from="-116049443#1" id="rs_c000_i001_71" to="-212694593#2"/>
 <trip depart="53.0" departLane="best" departSpeed="max" from="30326559" id="rs_c000_i000_612" to="30326560"/>
 <trip depart="54.0" departLane="best" departSpeed="max" from="122529104#4" id="rs_c000_i000_635" to="-95937728#1"/>
 <trip depart="55.0" departLane="best" departSpeed="max" from="-61566225#0" id="rs_c000_i000_653" to="-61279838#0"/>
 <trip depart="56.0" departLane="best" departSpeed="max" from="190721768#1" id="rs_c000_i000_665" to="-445997357#0"/>
 <trip depart="57.0" departLane="best" departSpeed="max" from="61496433" id="rs_c000_i001_79" to="-61543316#0"/>
 <trip depart="57.0" departLane="best" departSpeed="max" from="462046218" id="rs_c000_i000_673" to="-30141086#0"/>
 <trip depart="57.0" departLane="best" departSpeed="max" from="-84017983" id="rs_c000_i000_678" to="84656707#1"/>
 <trip depart="58.0" departLane="best" departSpeed="max" from="-118155456#2" id="rs_c000_i000_685" to="118155452#0"/>
 <trip depart="59.0" departLane="best" departSpeed="max" from="130735705" id="rs_c000_i001_84" to="-333156359#3"/>
 <trip depart="60.0" departLane="best" departSpeed="max" from="-15242127#1" id="rs_c000_i000_711" to="26368656#1"/>
 <trip depart="60.0" departLane="best" departSpeed="max" from="8597240" id="rs_c001_i001_17" to="364029241#0"/>
 <trip depart="61.0" departLane="best" departSpeed="max" from="-212690606" id="rs_c000_i001_86" to="-10508541"/>
 <trip depart="63.0" departLane="best" departSpeed="max" from="-5096970" id="rs_c001_i000_138" to="803452286#0"/>
 <trip depart="64.0" departLane="best" departSpeed="max" from="-4680630" id="rs_c001_i000_143" to="83496334"/>
 <trip depart="65.0" departLane="best" departSpeed="max" from="-4872089" id="rs_c000_i000_763" to="79884614"/>
 <trip depart="65.0" departLane="best" departSpeed="max" from="-203752765" id="rs_c001_i000_145" to="-100018570#1"/>
 <trip depart="67.0" departLane="best" departSpeed="max" from="-84017983" id="rs_c000_i001_97" to="-84656707#0"/>
 <trip depart="67.0" departLane="best" departSpeed="max" from="4238091#1" id="rs_c001_i000_151" to="4952735#0"/>
 <trip depart="69.0" departLane="best" departSpeed="max" from="-147136167" id="rs_c001_i000_155" to="-16345612#0"/>
 <trip depart="73.0" departLane="best" departSpeed="max" from="71284390#0" id="rs_c000_i001_104" to="71284390#1"/>
 <trip depart="73.0" departLane="best" departSpeed="max" from="-10405223#0" id="rs_c001_i000_160" to="25894166#2"/>
 <trip depart="74.0" departLane="best" departSpeed="max" from="-95100609" id="rs_c000_i000_864" to="-301145897"/>
 <trip depart="74.0" departLane="best" departSpeed="max" from="24487041" id="rs_c000_i000_865" to="217696286#1"/>
 <trip depart="74.0" departLane="best" departSpeed="max" from="100016823#2" id="rs_c000_i000_866" to="117626823#0"/>
 <trip depart="74.0" departLane="best" departSpeed="max" from="-4226192#0" id="rs_c001_i000_161" to="4226192#2"/>
 <trip depart="75.0" departLane="best" departSpeed="max" from="-328253309#0" id="rs_c000_i001_110" to="126449315#0"/>
 <trip depart="75.0" departLane="best" departSpeed="max" from="-237367748#2" id="rs_c000_i000_879" to="4237991"/>
 <trip depart="75.0" departLane="best" departSpeed="max" from="-10436546" id="rs_c001_i000_164" to="51340266#1"/>
 <trip depart="76.0" departLane="best" departSpeed="max" from="26040294#1" id="rs_c000_i000_880" to="26040294#2"/>
 <trip depart="76.0" departLane="best" departSpeed="max" from="-10425858" id="rs_c000_i000_882" to="-14573382#1"/>
 <trip depart="76.0" departLane="best" departSpeed="max" from="20179292#0" id="rs_c001_i000_168" to="20179292#1"/>
 <trip depart="78.0" departLane="best" departSpeed="max" from="8102541" id="rs_c000_i001_113" to="-61281861"/>
 <trip depart="79.0" departLane="best" departSpeed="max" from="-63322102#1" id="rs_c000_i000_918" to="-63322102#0"/>
 <trip depart="79.0" departLane="best" departSpeed="max" from="51340803#0" id="rs_c000_i000_920" to="51340803#1"/>
 <trip depart="80.0" departLane="best" departSpeed="max" from="96915239#1" id="rs_c000_i000_928" to="213132380"/>
 <trip depart="80.0" departLane="best" departSpeed="max" from="-62419359#0" id="rs_c001_i001_22" to="62513944#1"/>
 <trip depart="82.0" departLane="best" departSpeed="max" from="-126906449" id="rs_c000_i001_118" to="-5065920"/>
 <trip depart="82.0" departLane="best" departSpeed="max" from="-5065866#1" id="rs_c000_i000_941" to="42557001#1"/>
 <trip depart="84.0" departLane="best" departSpeed="max" from="-117654815#3" id="rs_c000_i001_120" to="-117654815#2"/>
 <trip depart="85.0" departLane="best" departSpeed="max" from="-188890214" id="rs_c000_i000_971" to="39297416"/>
 <trip depart="85.0" departLane="best" departSpeed="max" from="62789947#2" id="rs_c000_i000_975" to="-96945485"/>
 <trip depart="86.0" departLane="best" departSpeed="max" from="4353778#0" id="rs_c000_i000_982" to="-57726375#2"/>
 <trip depart="86.0" departLane="best" departSpeed="max" from="-30141086#0" id="rs_c001_i000_186" to="29712025#0"/>
 <trip depart="86.0" departLane="best" departSpeed="max" from="-62064349" id="rs_c001_i000_187" to="-62064083"/>
 <trip depart="87.0" departLane="best" departSpeed="max" from="117589024" id="rs_c000_i000_1004" to="-117589022#0"/>
 <trip depart="87.0" departLane="best" departSpeed="max" from="-62162661" id="rs_c001_i000_190" to="-62162663#0"/>
 <trip depart="89.0" departLane="best" departSpeed="max" from="-24429416" id="rs_c000_i000_1016" to="86714180#1"/>
 <trip depart="89.0" departLane="best" departSpeed="max" from="358697049#1" id="rs_c000_i000_1020" to="358697049#2"/>
 <trip depart="90.0" departLane="best" departSpeed="max" from="51340803#0" id="rs_c001_i000_189" to="51340803#1"/>
 <trip depart="90.0" departLane="best" departSpeed="max" from="-58767757#1" id="rs_c001_i000_195" to="58767757#1"/>
 <trip depart="91.0" departLane="best" departSpeed="max" from="-85562446#0" id="rs_c001_i000_197" to="-84017983"/>
 <trip depart="92.0" departLane="best" departSpeed="max" from="-328266345" id="rs_c000_i000_1050" to="-126449197"/>
 <trip depart="93.0" departLane="best" departSpeed="max" from="24423403#5" id="rs_c000_i000_1064" to="24423403#6"/>
 <trip depart="93.0" departLane="best" departSpeed="max" from="4643592" id="rs_c000_i001_133" to="-4643592"/>
 <trip depart="94.0" departLane="best" departSpeed="max" from="-95937723" id="rs_c000_i001_93" to="-95937728#3"/>
 <trip depart="96.0" departLane="best" departSpeed="max" from="15242129#1" id="rs_c000_i000_1095" to="-330415869"/>
 <trip depart="96.0" departLane="best" departSpeed="max" from="-14573382#2" id="rs_c001_i000_205" to="-14573382#1"/>
 <trip depart="97.0" departLane="best" departSpeed="max" from="-30471057#0" id="rs_c000_i000_1122" to="6927279"/>
 <trip depart="98.0" departLane="best" departSpeed="max" from="-5234464" id="rs_c000_i000_1131" to="-30141086#0"/>
 <trip depart="98.0" departLane="best" departSpeed="max" from="-83497364" id="rs_c000_i000_1132" to="59603305#1"/>
 <trip depart="98.0" departLane="best" departSpeed="max" from="364419352#0" id="rs_c000_i001_141" to="327223066"/>
 <trip depart="100.0" departLane="best" departSpeed="max" from="-328813517" id="rs_c001_i000_213" to="-142497100#0"/>
 <trip depart="101.0" departLane="best" departSpeed="max" from="137996244#0" id="rs_c000_i000_1157" to="-122529114#1"/>
 <trip depart="103.0" departLane="best" departSpeed="max" from="-122529100" id="rs_c000_i000_1177" to="24423403#5"/>
 <trip depart="103.0" departLane="best" departSpeed="max" from="358697049#0" id="rs_c000_i000_1186" to="358697049#1"/>
 <trip depart="103.0" departLane="best" departSpeed="max" from="-4361529#0" id="rs_c001_i002_4" to="26165754#1"/>
 <trip depart="104.0" departLane="best" departSpeed="max" from="4238091#1" id="rs_c000_i000_521" to="4952735#0"/>
 <trip depart="107.0" departLane="best" departSpeed="max" from="-286404309" id="rs_c000_i000_1211" to="-138037519"/>
 <trip depart="107.0" departLane="best" departSpeed="max" from="39644113#0" id="rs_c000_i000_1214" to="30290973"/>
 <trip depart="108.0" departLane="best" departSpeed="max" from="4238091#1" id="rs_c000_i000_937" to="4952735#0"/>
 <trip depart="109.0" departLane="best" departSpeed="max" from="6935285#0" id="rs_c000_i000_1228" to="145737637#1"/>
 <trip depart="109.0" departLane="best" departSpeed="max" from="209234443" id="rs_c000_i001_163" to="209234444"/>
 <trip depart="110.0" departLane="best" departSpeed="max" from="-117099159#3" id="rs_c000_i000_1243" to="-26085515#3"/>
 <trip depart="111.0" departLane="best" departSpeed="max" from="-42902346#1" id="rs_c000_i000_1260" to="28918381#4"/>
 <trip depart="111.0" departLane="best" departSpeed="max" from="503180223#1" id="rs_c000_i002_25" to="-137996252"/>
 <trip depart="112.0" departLane="best" departSpeed="max" from="4952735#0" id="rs_c000_i000_1268" to="327225378"/>
 <trip depart="112.0" departLane="best" departSpeed="max" from="4246321" id="rs_c001_i000_233" to="-4246322#0"/>
 <trip depart="113.0" departLane="best" departSpeed="max" from="125689487#3" id="rs_c000_i000_1282" to="25894166#0"/>
 <trip depart="117.0" departLane="best" departSpeed="max" from="24423403#2" id="rs_c001_i000_241" to="24423403#3"/>
 <trip depart="118.0" departLane="best" departSpeed="max" from="-87397780" id="rs_c000_i000_1330" to="4250372"/>
 <trip depart="120.0" departLane="best" departSpeed="max" from="125684101#0" id="rs_c000_i001_171" to="12163379#0"/>
 <trip depart="120.0" departLane="best" departSpeed="max" from="-117643624" id="rs_c000_i000_1352" to="62106371#1"/>
 <trip depart="120.0" departLane="best" departSpeed="max" from="10501707" id="rs_c000_i000_1353" to="-24049140#0"/>
 <trip depart="121.0" departLane="best" departSpeed="max" from="-95937723" id="rs_c000_i000_122" to="-95937728#3"/>
 <trip depart="121.0" departLane="best" departSpeed="max" from="5091199" id="rs_c001_i000_246" to="62059875#1"/>
 <trip depart="122.0" departLane="best" departSpeed="max" from="42793238#0" id="rs_c000_i000_1376" to="-98158886#0"/>
 <trip depart="124.0" departLane="best" departSpeed="max" from="-95937723" id="rs_c000_i000_253" to="-95937728#3"/>
 <trip depart="124.0" departLane="best" departSpeed="max" from="-122529094#5" id="rs_c000_i000_1409" to="-95937728#0"/>
 <trip depart="124.0" departLane="best" departSpeed="max" from="310738357" id="rs_c001_i000_253" to="96596615#1"/>
 <trip depart="125.0" departLane="best" departSpeed="max" from="5095190#0" id="rs_c000_i000_1423" to="-233171094#0"/>
 <trip depart="127.0" departLane="best" departSpeed="max" from="136864086" id="rs_c000_i000_1442" to="-136864084#0"/>
 <trip depart="127.0" departLane="best" departSpeed="max" from="-333156359#0" id="rs_c000_i001_191" to="-156117460"/>
 <trip depart="128.0" departLane="best" departSpeed="max" from="-118155453" id="rs_c000_i001_193" to="-34776023#0"/>
 <trip depart="129.0" departLane="best" departSpeed="max" from="-39316011#1" id="rs_c000_i000_1471" to="149705105#1"/>
 <trip depart="130.0" departLane="best" departSpeed="max" from="-9604697" id="rs_c000_i000_1478" to="-8394848"/>
 <trip depart="131.0" departLane="best" departSpeed="max" from="-61371680#0" id="rs_c000_i000_1484" to="8102541"/>
 <trip depart="133.0" departLane="best" departSpeed="max" from="4233517#1" id="rs_c000_i001_196" to="34495949"/>
 <trip depart="136.0" departLane="best" departSpeed="max" from="-10426171#1" id="rs_c000_i000_1528" to="-10426171#0"/>
 <trip depart="136.0" departLane="best" departSpeed="max" from="-76180072" id="rs_c000_i000_1535_part0" to="-76180070"/>
 <trip depart="136.0" departLane="best" departSpeed="max" from="10559201" id="rs_c000_i001_200" to="-84639212"/>
 <trip depart="136.0" departLane="best" departSpeed="max" from="703967772" id="rs_c001_i000_276" to="703967773"/>
 <trip depart="137.0" departLane="best" departSpeed="max" from="-367319945#1" id="rs_c000_i000_1543" to="-367319945#0"/>
 <trip depart="138.0" departLane="best" departSpeed="max" from="-6933813" id="rs_c000_i000_1561" to="-337470015#0"/>
 <trip depart="139.0" departLane="best" departSpeed="max" from="703967772" id="rs_c000_i001_206" to="703967773"/>
 <trip depart="140.0" departLane="best" departSpeed="max" from="-83510232#0" id="rs_c001_i000_282_part0" to="-313656937"/>
 <trip depart="141.0" departLane="best" departSpeed="max" from="94124202" id="rs_c000_i000_605" to="96559143"/>
 <trip depart="142.0" departLane="best" departSpeed="max" from="4238091#1" id="rs_c000_i000_1370" to="4952735#0"/>
 <trip depart="142.0" departLane="best" departSpeed="max" from="26085515#5" id="rs_c000_i000_1609" to="-117099133"/>
 <trip depart="143.0" departLane="best" departSpeed="max" from="-14994763" id="rs_c000_i000_1620" to="132817971"/>
 <trip depart="144.0" departLane="best" departSpeed="max" from="-51722315#0" id="rs_c001_i000_293" to="-51722317"/>
 <trip depart="145.0" departLane="best" departSpeed="max" from="-80374106" id="rs_c000_i000_1633" to="582264121"/>
 <trip depart="145.0" departLane="best" departSpeed="max" from="-62161917" id="rs_c000_i000_1637" to="-5067786#0"/>
 <trip depart="146.0" departLane="best" departSpeed="max" from="-328040089" id="rs_c000_i000_1649" to="-188653321"/>
 <trip depart="147.0" departLane="best" departSpeed="max" from="57722544" id="rs_c000_i000_1658" to="35822877#0"/>
 <trip depart="148.0" departLane="best" departSpeed="max" from="-95937723" id="rs_c000_i000_551" to="-95937728#3"/>
 <trip depart="148.0" departLane="best" departSpeed="max" from="137996244#0" id="rs_c000_i000_1675" to="122529114#2"/>
 <trip depart="152.0" departLane="best" departSpeed="max" from="-333144425" id="rs_c001_i001_35" to="-333144397"/>
 <trip depart="154.0" departLane="best" departSpeed="max" from="83701518#0" id="rs_c000_i000_1742" to="83701518#1"/>
 <trip depart="156.0" departLane="best" departSpeed="max" from="-28840232#0" id="rs_c000_i000_1756" to="26040355#6"/>
 <trip depart="157.0" departLane="best" departSpeed="max" from="-95937723" id="rs_c000_i000_460" to="-95937728#3"/>
 <trip depart="160.0" departLane="best" departSpeed="max" from="-6935800#0" id="rs_c000_i000_1806" to="133114634"/>
 <trip depart="161.0" departLane="best" departSpeed="max" from="807837521#2" id="rs_c000_i000_1724" to="582286858#1"/>
 <trip depart="161.66" departLane="best" departSpeed="max" from="96718348#0" id="rs_c001_i000_28" to="96718347"/>
 <trip depart="162.0" departLane="best" departSpeed="max" from="46606595" id="rs_c000_i000_1823" to="46606603"/>
 <trip depart="164.58" departLane="best" departSpeed="max" from="96718348#0" id="rs_c000_i000_247_part1" to="96718347"/>
 <trip depart="165.0" departLane="best" departSpeed="max" from="-234540368" id="rs_c000_i000_1853" to="234540367"/>
 <trip depart="165.0" departLane="best" departSpeed="max" from="-14433921#1" id="rs_c000_i000_1859" to="206172956"/>
 <trip depart="165.0" departLane="best" departSpeed="max" from="212687129#1" id="rs_c000_i001_248" to="212687129#2"/>
 <trip depart="167.0" departLane="best" departSpeed="max" from="-5234280#0" id="rs_c000_i000_1879" to="-5234278#1"/>
 <trip depart="167.0" departLane="best" departSpeed="max" from="-61367449#0" id="rs_c001_i001_41" to="8102548"/>
 <trip depart="168.0" departLane="best" departSpeed="max" from="100018570#1" id="rs_c001_i000_336" to="203752765"/>
 <trip depart="169.0" departLane="best" departSpeed="max" from="-10357406#1" id="rs_c001_i000_338" to="30326722"/>
 <trip depart="170.0" departLane="best" departSpeed="max" from="-367006381" id="rs_c000_i000_1903_part0" to="-210993752#2"/>
 <trip depart="170.0" departLane="best" departSpeed="max" from="136721678" id="rs_c000_i000_1908" to="58507979#0"/>
 <trip depart="171.0" departLane="best" departSpeed="max" from="-30261805" id="rs_c000_i000_1911" to="61981598#1"/>
 <trip depart="171.0" departLane="best" departSpeed="max" from="462046218" id="rs_c001_i000_340" to="-30141086#0"/>
 <trip depart="172.0" departLane="best" departSpeed="max" from="-24423403#10" id="rs_c000_i001_252" to="-125351162#0"/>
 <trip depart="174.0" departLane="best" departSpeed="max" from="-10425858" id="rs_c000_i002_41" to="-14573382#1"/>
 <trip depart="177.0" departLane="best" departSpeed="max" from="6935285#0" id="rs_c000_i000_1968" to="145737637#1"/>
 <trip depart="177.0" departLane="best" departSpeed="max" from="142497097" id="rs_c000_i000_1978" to="312887979"/>
 <trip depart="177.0" departLane="best" departSpeed="max" from="51856551#0" id="rs_c001_i000_348" to="1006265805#3"/>
 <trip depart="178.0" departLane="best" departSpeed="max" from="-77806130" id="rs_c000_i000_1989" to="-71233702"/>
 <trip depart="178.0" departLane="best" departSpeed="max" from="-333156359#0" id="rs_c000_i001_270" to="-156117460"/>
 <trip depart="181.0" departLane="best" departSpeed="max" from="-95937723" id="rs_c000_i000_555" to="-95937728#3"/>
 <trip depart="181.0" departLane="best" departSpeed="max" from="118869284#0" id="rs_c000_i000_2018" to="118869284#1"/>
 <trip depart="182.0" departLane="best" departSpeed="max" from="-10426011#1" id="rs_c000_i001_276" to="10425893#1"/>
 <trip depart="187.0" departLane="best" departSpeed="max" from="-4238028#1" id="rs_c000_i000_2074" to="4238027"/>
 <trip depart="187.0" departLane="best" departSpeed="max" from="332253063#1" id="rs_c000_i001_280" to="-10426057"/>
 <trip depart="187.0" departLane="best" departSpeed="max" from="14571550#1" id="rs_c000_i002_46" to="15242125"/>
 <trip depart="188.0" departLane="best" departSpeed="max" from="-125589533" id="rs_c000_i000_2081" to="240100844#1"/>
 <trip depart="188.0" departLane="best" departSpeed="max" from="-62071809#1" id="rs_c001_i000_363" to="-61102971#0"/>
 <trip depart="189.0" departLane="best" departSpeed="max" from="632149254#0" id="rs_c000_i000_2088" to="-4238018#0"/>
 <trip depart="189.0" departLane="best" departSpeed="max" from="-118869284#1" id="rs_c000_i000_2091" to="122529094#4"/>
 <trip depart="193.0" departLane="best" departSpeed="max" from="10500974" id="rs_c001_i000_370" to="-5376397#1"/>
 <trip depart="194.0" departLane="best" departSpeed="max" from="145737637#0" id="rs_c001_i000_373_part0" to="145737637#1"/>
 <trip depart="194.0" departLane="best" departSpeed="max" from="-379530234" id="rs_c001_i001_48" to="-138666583"/>
 <trip depart="196.0" departLane="best" departSpeed="max" from="285621686" id="rs_c000_i001_292" to="89891359"/>
 <trip depart="197.0" departLane="best" departSpeed="max" from="-59683236#1" id="rs_c000_i000_2163" to="-123037083"/>
 <trip depart="198.0" departLane="best" departSpeed="max" from="-5137917" id="rs_c000_i001_296" to="-75612390#0"/>
 <trip depart="199.0" departLane="best" departSpeed="max" from="10377170" id="rs_c000_i000_2185" to="10377201"/>
 <trip depart="200.0" departLane="best" departSpeed="max" from="-136721672" id="rs_c000_i000_2199" to="-852319713#0"/>
 <trip depart="200.0" departLane="best" departSpeed="max" from="-333156359#4" id="rs_c001_i000_381" to="-333156359#3"/>
 <trip depart="201.0" departLane="best" departSpeed="max" from="-929213813" id="rs_c000_i000_2221" to="366616515"/>
 <trip depart="203.0" departLane="best" departSpeed="max" from="-16345605#0" id="rs_c001_i000_391" to="-16345612#0"/>
 <trip depart="203.0" departLane="best" departSpeed="max" from="462046218" id="rs_c000_i000_2238" to="-30141086#0"/>
 <trip depart="204.0" departLane="best" departSpeed="max" from="-51306014" id="rs_c000_i000_2248" to="-117649887"/>
 <trip depart="204.0" departLane="best" departSpeed="max" from="-29689095" id="rs_c000_i000_2258" to="-350148486"/>
 <trip depart="205.0" departLane="best" departSpeed="max" from="626942404#1" id="rs_c000_i000_2276" to="-117099170"/>
 <trip depart="205.0" departLane="best" departSpeed="max" from="582264121" id="rs_c000_i001_304" to="582125942#2"/>
 <trip depart="205.45" departLane="best" departSpeed="max" from="-445997357#0" id="rs_c000_i000_593" to="-30261803#1"/>
 <trip depart="207.0" departLane="best" departSpeed="max" from="-183035440#0" id="rs_c000_i000_2295" to="45873419#1"/>
 <trip depart="209.0" departLane="best" departSpeed="max" from="-765843955" id="rs_c000_i000_2309" to="26959968#1"/>
 <trip depart="210.0" departLane="best" departSpeed="max" from="-9604697" id="rs_c000_i000_2321" to="-8394848"/>
 <trip depart="211.0" departLane="best" departSpeed="max" from="367315282" id="rs_c000_i000_2330" to="-4238018#1"/>
 <trip depart="211.0" departLane="best" departSpeed="max" from="-23197960" id="rs_c000_i001_318" to="-212690611#0"/>
 <trip depart="212.0" departLane="best" departSpeed="max" from="4238091#1" id="rs_c000_i000_1387" to="4952735#0"/>
 <trip depart="212.0" departLane="best" departSpeed="max" from="-136864084#1" id="rs_c001_i000_412" to="-136864084#0"/>
 <trip depart="212.0" departLane="best" departSpeed="max" from="-34149612#0" id="rs_c000_i000_2338" to="118155452#0"/>
 <trip depart="212.0" departLane="best" departSpeed="max" from="-26295654#3" id="rs_c000_i000_2344" to="98158885#2"/>
 <trip depart="212.0" departLane="best" departSpeed="max" from="4229476" id="rs_c000_i000_2345" to="96202733"/>
 <trip depart="212.0" departLane="best" departSpeed="max" from="-126905635" id="rs_c000_i000_2347" to="-126905630"/>
 <trip depart="213.0" departLane="best" departSpeed="max" from="300981184#1" id="rs_c000_i000_2358" to="-4361529#0"/>
 <trip depart="214.0" departLane="best" departSpeed="max" from="-369150317#0" id="rs_c000_i000_2371" to="-132047178"/>
 <trip depart="214.75" departLane="best" departSpeed="max" from="133113949" id="rs_c001_i001_29" to="133113951#0"/>
 <trip depart="215.24" departLane="best" departSpeed="max" from="6929234#1" id="rs_c000_i000_490" to="5234969"/>
 <trip depart="216.0" departLane="best" departSpeed="max" from="-95952109" id="rs_c001_i000_422" to="331377546"/>
 <trip depart="216.0" departLane="best" departSpeed="max" from="-116049442" id="rs_c000_i000_2391" to="222307221#0"/>
 <trip depart="217.0" departLane="best" departSpeed="max" from="4238091#1" id="rs_c000_i001_213" to="4952735#0"/>
 <trip depart="217.0" departLane="best" departSpeed="max" from="10558745" id="rs_c000_i000_2397" to="39128352"/>
 <trip depart="218.0" departLane="best" departSpeed="max" from="183247520" id="rs_c001_i001_54" to="183247521#1"/>
 <trip depart="219.0" departLane="best" departSpeed="max" from="906802009" id="rs_c001_i000_425" to="94107470"/>
 <trip depart="220.0" departLane="best" departSpeed="max" from="94124202" id="rs_c000_i000_1682_part1" to="96559143"/>
 <trip depart="220.0" departLane="best" departSpeed="max" from="-301127377" id="rs_c001_i000_429" to="-159761036#1"/>
 <trip depart="221.0" departLane="best" departSpeed="max" from="313535515" id="rs_c001_i000_431" to="-313535510"/>
 <trip depart="221.0" departLane="best" departSpeed="max" from="-211120149" id="rs_c000_i000_2437" to="-5376397#0"/>
 <trip depart="221.0" departLane="best" departSpeed="max" from="-117589022#2" id="rs_c000_i000_2442" to="-117589022#1"/>
 <trip depart="222.0" departLane="best" departSpeed="max" from="4238091#1" id="rs_c001_i000_378" to="4952735#0"/>