<?xml version="1.0" encoding="UTF-8"?>

<!-- generated on 2024-07-11 17:48:00.136770 by generateParkingAreas.py v1_19_0+2078-88426099c44
<configuration>
    <net-file value="C:\Users\bochenin\RL project\materials\ridesharing\Helsinki\toy example\demand generation\area2_gcc_plain.net.xml"/>
    <output-file value="C:\Users\bochenin\RL project\materials\ridesharing\Helsinki\toy example\demand generation\area2_gcc_parkingareas_plain.add.xml"/>
</configuration>
-->

<additional xmlns:xsi="http://www.w3.org/2001/XMLSchema-instance" xsi:noNamespaceSchemaLocation="http://sumo.dlr.de/xsd/additional_file.xsd">
    <parkingArea id="pa-100016823#0" lane="-100016823#0_0" roadsideCapacity="37" length="5"/>
    <parkingArea id="pa-100016823#1" lane="-100016823#1_0" roadsideCapacity="13" length="5"/>
    <parkingArea id="pa-100016823#2" lane="-100016823#2_0" roadsideCapacity="14" length="5"/>
    <parkingArea id="pa-100016823#3" lane="-100016823#3_0" roadsideCapacity="7" length="5"/>
    <parkingArea id="pa-100018560" lane="-100018560_0" roadsideCapacity="14" length="5"/>
    <parkingArea id="pa-100018562" lane="-100018562_0" roadsideCapacity="11" length="5"/>
    <parkingArea id="pa-100018564" lane="-100018564_0" roadsideCapacity="18" length="5"/>
    <parkingArea id="pa-100018566#0" lane="-100018566#0_0" roadsideCapacity="5" length="5"/>
    <parkingArea id="pa-100018566#1" lane="-100018566#1_0" roadsideCapacity="43" length="5"/>
    <parkingArea id="pa-100018567" lane="-100018567_0" roadsideCapacity="56" length="5"/>
    <parkingArea id="pa-100018570#0" lane="-100018570#0_0" roadsideCapacity="2" length="5"/>
    <parkingArea id="pa-100018570#1" lane="-100018570#1_0" roadsideCapacity="62" length="5"/>
    <parkingArea id="pa-100073149" lane="-100073149_0" roadsideCapacity="53" length="5"/>
    <parkingArea id="pa-100074572#0" lane="-100074572#0_0" roadsideCapacity="26" length="5"/>
    <parkingArea id="pa-100074572#1" lane="-100074572#1_0" roadsideCapacity="18" length="5"/>
    <parkingArea id="pa-101158310" lane="-101158310_0" roadsideCapacity="28" length="5"/>
    <parkingArea id="pa-101486395" lane="-101486395_0" roadsideCapacity="20" length="5"/>
    <parkingArea id="pa-101520672" lane="-101520672_0" roadsideCapacity="14" length="5"/>
    <parkingArea id="pa-101521565" lane="-101521565_0" roadsideCapacity="5" length="5"/>
    <parkingArea id="pa-101521569#0" lane="-101521569#0_0" roadsideCapacity="31" length="5"/>
    <parkingArea id="pa-101731771" lane="-101731771_0" roadsideCapacity="21" length="5"/>
    <parkingArea id="pa-1020560683" lane="-1020560683_0" roadsideCapacity="9" length="5"/>
    <parkingArea id="pa-102278339" lane="-102278339_0" roadsideCapacity="16" length="5"/>
    <parkingArea id="pa-102282708#0" lane="-102282708#0_0" roadsideCapacity="4" length="5"/>
    <parkingArea id="pa-102337972" lane="-102337972_0" roadsideCapacity="3" length="5"/>
    <parkingArea id="pa-1024008463" lane="-1024008463_0" roadsideCapacity="50" length="5"/>
    <parkingArea id="pa-10314886" lane="-10314886_0" roadsideCapacity="15" length="5"/>
    <parkingArea id="pa-103302383#2" lane="-103302383#2_0" roadsideCapacity="2" length="5"/>
    <parkingArea id="pa-10357193" lane="-10357193_0" roadsideCapacity="3" length="5"/>
    <parkingArea id="pa-10363301" lane="-10363301_0" roadsideCapacity="18" length="5"/>
    <parkingArea id="pa-10363317" lane="-10363317_0" roadsideCapacity="8" length="5"/>
    <parkingArea id="pa-10363468" lane="-10363468_0" roadsideCapacity="11" length="5"/>
    <parkingArea id="pa-10363538" lane="-10363538_0" roadsideCapacity="13" length="5"/>
    <parkingArea id="pa-10363546" lane="-10363546_0" roadsideCapacity="20" length="5"/>
    <parkingArea id="pa-10363555" lane="-10363555_0" roadsideCapacity="11" length="5"/>
    <parkingArea id="pa-10372364#0" lane="-10372364#0_0" roadsideCapacity="28" length="5"/>
    <parkingArea id="pa-10372364#1" lane="-10372364#1_0" roadsideCapacity="27" length="5"/>
    <parkingArea id="pa-10372376" lane="-10372376_0" roadsideCapacity="6" length="5"/>
    <parkingArea id="pa-10372461" lane="-10372461_0" roadsideCapacity="9" length="5"/>
    <parkingArea id="pa-10373960" lane="-10373960_0" roadsideCapacity="44" length="5"/>
    <parkingArea id="pa-10374052" lane="-10374052_0" roadsideCapacity="21" length="5"/>
    <parkingArea id="pa-10374120" lane="-10374120_0" roadsideCapacity="25" length="5"/>
    <parkingArea id="pa-10377153#1" lane="-10377153#1_0" roadsideCapacity="19" length="5"/>
    <parkingArea id="pa-10405223#0" lane="-10405223#0_0" roadsideCapacity="13" length="5"/>
    <parkingArea id="pa-10405223#1" lane="-10405223#1_0" roadsideCapacity="14" length="5"/>
    <parkingArea id="pa-10405292" lane="-10405292_0" roadsideCapacity="18" length="5"/>
    <parkingArea id="pa-10405419" lane="-10405419_0" roadsideCapacity="18" length="5"/>
    <parkingArea id="pa-10405686" lane="-10405686_0" roadsideCapacity="12" length="5"/>
    <parkingArea id="pa-10420511" lane="-10420511_0" roadsideCapacity="21" length="5"/>
    <parkingArea id="pa-10420618" lane="-10420618_0" roadsideCapacity="6" length="5"/>
    <parkingArea id="pa-10420635#1" lane="-10420635#1_0" roadsideCapacity="11" length="5"/>
    <parkingArea id="pa-10425852" lane="-10425852_0" roadsideCapacity="11" length="5"/>
    <parkingArea id="pa-10425858" lane="-10425858_0" roadsideCapacity="11" length="5"/>
    <parkingArea id="pa-10425883" lane="-10425883_0" roadsideCapacity="8" length="5"/>
    <parkingArea id="pa-10426011#1" lane="-10426011#1_0" roadsideCapacity="5" length="5"/>
    <parkingArea id="pa-10426021#1" lane="-10426021#1_0" roadsideCapacity="4" length="5"/>
    <parkingArea id="pa-10426031#1" lane="-10426031#1_0" roadsideCapacity="13" length="5"/>
    <parkingArea id="pa-10426053#1" lane="-10426053#1_0" roadsideCapacity="34" length="5"/>
    <parkingArea id="pa-10426053#2" lane="-10426053#2_0" roadsideCapacity="18" length="5"/>
    <parkingArea id="pa-10426053#3" lane="-10426053#3_0" roadsideCapacity="6" length="5"/>
    <parkingArea id="pa-10426057" lane="-10426057_0" roadsideCapacity="9" length="5"/>
    <parkingArea id="pa-10426113#0" lane="-10426113#0_0" roadsideCapacity="11" length="5"/>
    <parkingArea id="pa-10426171#0" lane="-10426171#0_0" roadsideCapacity="1" length="5"/>
    <parkingArea id="pa-10426171#1" lane="-10426171#1_0" roadsideCapacity="29" length="5"/>
    <parkingArea id="pa-10426173" lane="-10426173_0" roadsideCapacity="8" length="5"/>
    <parkingArea id="pa-10426204#0" lane="-10426204#0_0" roadsideCapacity="10" length="5"/>
    <parkingArea id="pa-10426204#1" lane="-10426204#1_0" roadsideCapacity="41" length="5"/>
    <parkingArea id="pa-10426219" lane="-10426219_0" roadsideCapacity="19" length="5"/>
    <parkingArea id="pa-10436546" lane="-10436546_0" roadsideCapacity="11" length="5"/>
    <parkingArea id="pa-10500850" lane="-10500850_0" roadsideCapacity="24" length="5"/>
    <parkingArea id="pa-10500974" lane="-10500974_0" roadsideCapacity="34" length="5"/>
    <parkingArea id="pa-10501671" lane="-10501671_0" roadsideCapacity="18" length="5"/>
    <parkingArea id="pa-10501707" lane="-10501707_0" roadsideCapacity="50" length="5"/>
    <parkingArea id="pa-10502291#1" lane="-10502291#1_0" roadsideCapacity="10" length="5"/>
    <parkingArea id="pa-10508974#0" lane="-10508974#0_0" roadsideCapacity="6" length="5"/>
    <parkingArea id="pa-10509023" lane="-10509023_0" roadsideCapacity="8" length="5"/>
    <parkingArea id="pa-10516147#0" lane="-10516147#0_0" roadsideCapacity="11" length="5"/>
    <parkingArea id="pa-10516147#1" lane="-10516147#1_0" roadsideCapacity="16" length="5"/>
    <parkingArea id="pa-10516147#2" lane="-10516147#2_0" roadsideCapacity="4" length="5"/>
    <parkingArea id="pa-10516236" lane="-10516236_0" roadsideCapacity="32" length="5"/>
    <parkingArea id="pa-10516368" lane="-10516368_0" roadsideCapacity="42" length="5"/>
    <parkingArea id="pa-10516453" lane="-10516453_0" roadsideCapacity="11" length="5"/>
    <parkingArea id="pa-10516873" lane="-10516873_0" roadsideCapacity="6" length="5"/>
    <parkingArea id="pa-1052613455" lane="-1052613455_0" roadsideCapacity="9" length="5"/>
    <parkingArea id="pa-10557968" lane="-10557968_0" roadsideCapacity="37" length="5"/>
    <parkingArea id="pa-10558007#0" lane="-10558007#0_0" roadsideCapacity="3" length="5"/>
    <parkingArea id="pa-10558102" lane="-10558102_0" roadsideCapacity="36" length="5"/>
    <parkingArea id="pa-10559035" lane="-10559035_0" roadsideCapacity="7" length="5"/>
    <parkingArea id="pa-10559379" lane="-10559379_0" roadsideCapacity="64" length="5"/>
    <parkingArea id="pa-1069054067" lane="-1069054067_0" roadsideCapacity="14" length="5"/>
    <parkingArea id="pa-1075684663#0" lane="-1075684663#0_0" roadsideCapacity="4" length="5"/>
    <parkingArea id="pa-1075684663#1" lane="-1075684663#1_0" roadsideCapacity="2" length="5"/>
    <parkingArea id="pa-1080290022" lane="-1080290022_0" roadsideCapacity="55" length="5"/>
    <parkingArea id="pa-108336183#0" lane="-108336183#0_0" roadsideCapacity="7" length="5"/>
    <parkingArea id="pa-108336183#1" lane="-108336183#1_0" roadsideCapacity="12" length="5"/>
    <parkingArea id="pa-108336183#2" lane="-108336183#2_0" roadsideCapacity="13" length="5"/>
    <parkingArea id="pa-108336183#3" lane="-108336183#3_0" roadsideCapacity="14" length="5"/>
    <parkingArea id="pa-111720720" lane="-111720720_0" roadsideCapacity="9" length="5"/>
    <parkingArea id="pa-111720721" lane="-111720721_0" roadsideCapacity="24" length="5"/>
    <parkingArea id="pa-111720726#0" lane="-111720726#0_0" roadsideCapacity="5" length="5"/>
    <parkingArea id="pa-113586381#0" lane="-113586381#0_0" roadsideCapacity="6" length="5"/>
    <parkingArea id="pa-113586381#1" lane="-113586381#1_0" roadsideCapacity="1" length="5"/>
    <parkingArea id="pa-113586395" lane="-113586395_0" roadsideCapacity="47" length="5"/>
    <parkingArea id="pa-113586408#0" lane="-113586408#0_0" roadsideCapacity="16" length="5"/>
    <parkingArea id="pa-113586408#1" lane="-113586408#1_0" roadsideCapacity="46" length="5"/>
    <parkingArea id="pa-113586411" lane="-113586411_0" roadsideCapacity="23" length="5"/>
    <parkingArea id="pa-114183032" lane="-114183032_0" roadsideCapacity="13" length="5"/>
    <parkingArea id="pa-116049438" lane="-116049438_0" roadsideCapacity="16" length="5"/>
    <parkingArea id="pa-116049439#0" lane="-116049439#0_0" roadsideCapacity="13" length="5"/>
    <parkingArea id="pa-116049439#1" lane="-116049439#1_0" roadsideCapacity="11" length="5"/>
    <parkingArea id="pa-116049442" lane="-116049442_0" roadsideCapacity="16" length="5"/>
    <parkingArea id="pa-116049443#0" lane="-116049443#0_0" roadsideCapacity="12" length="5"/>
    <parkingArea id="pa-116049443#1" lane="-116049443#1_0" roadsideCapacity="15" length="5"/>
    <parkingArea id="pa-116049443#2" lane="-116049443#2_0" roadsideCapacity="16" length="5"/>
    <parkingArea id="pa-116049443#3" lane="-116049443#3_0" roadsideCapacity="30" length="5"/>
    <parkingArea id="pa-116049444#0" lane="-116049444#0_0" roadsideCapacity="17" length="5"/>
    <parkingArea id="pa-116049444#1" lane="-116049444#1_0" roadsideCapacity="20" length="5"/>
    <parkingArea id="pa-116049788#0" lane="-116049788#0_0" roadsideCapacity="8" length="5"/>
    <parkingArea id="pa-116609541" lane="-116609541_0" roadsideCapacity="16" length="5"/>
    <parkingArea id="pa-116610243" lane="-116610243_0" roadsideCapacity="15" length="5"/>
    <parkingArea id="pa-117057367" lane="-117057367_0" roadsideCapacity="36" length="5"/>
    <parkingArea id="pa-117057368" lane="-117057368_0" roadsideCapacity="50" length="5"/>
    <parkingArea id="pa-117099133" lane="-117099133_0" roadsideCapacity="18" length="5"/>
    <parkingArea id="pa-117099136" lane="-117099136_0" roadsideCapacity="9" length="5"/>
    <parkingArea id="pa-117099138#0" lane="-117099138#0_0" roadsideCapacity="10" length="5"/>
    <parkingArea id="pa-117099138#1" lane="-117099138#1_0" roadsideCapacity="15" length="5"/>
    <parkingArea id="pa-117099138#2" lane="-117099138#2_0" roadsideCapacity="10" length="5"/>
    <parkingArea id="pa-117099142" lane="-117099142_0" roadsideCapacity="6" length="5"/>
    <parkingArea id="pa-117099146#0" lane="-117099146#0_0" roadsideCapacity="12" length="5"/>
    <parkingArea id="pa-117099146#1" lane="-117099146#1_0" roadsideCapacity="12" length="5"/>
    <parkingArea id="pa-117099147#2" lane="-117099147#2_0" roadsideCapacity="26" length="5"/>
    <parkingArea id="pa-117099151" lane="-117099151_0" roadsideCapacity="6" length="5"/>
    <parkingArea id="pa-117099153" lane="-117099153_0" roadsideCapacity="11" length="5"/>
    <parkingArea id="pa-117099156#0" lane="-117099156#0_0" roadsideCapacity="27" length="5"/>
    <parkingArea id="pa-117099156#1" lane="-117099156#1_0" roadsideCapacity="46" length="5"/>
    <parkingArea id="pa-117099159#0" lane="-117099159#0_0" roadsideCapacity="50" length="5"/>
    <parkingArea id="pa-117099159#2" lane="-117099159#2_0" roadsideCapacity="1" length="5"/>
    <parkingArea id="pa-117099159#3" lane="-117099159#3_0" roadsideCapacity="1" length="5"/>
    <parkingArea id="pa-117099159#4" lane="-117099159#4_0" roadsideCapacity="1" length="5"/>
    <parkingArea id="pa-117099159#5" lane="-117099159#5_0" roadsideCapacity="12" length="5"/>
    <parkingArea id="pa-117099170" lane="-117099170_0" roadsideCapacity="4" length="5"/>
    <parkingArea id="pa-117589020" lane="-117589020_0" roadsideCapacity="11" length="5"/>
    <parkingArea id="pa-117589021" lane="-117589021_0" roadsideCapacity="28" length="5"/>
    <parkingArea id="pa-117589022#0" lane="-117589022#0_0" roadsideCapacity="9" length="5"/>
    <parkingArea id="pa-117589022#1" lane="-117589022#1_0" roadsideCapacity="9" length="5"/>
    <parkingArea id="pa-117589022#2" lane="-117589022#2_0" roadsideCapacity="14" length="5"/>
    <parkingArea id="pa-117589022#3" lane="-117589022#3_0" roadsideCapacity="15" length="5"/>
    <parkingArea id="pa-117589024" lane="-117589024_0" roadsideCapacity="24" length="5"/>
    <parkingArea id="pa-117590604" lane="-117590604_0" roadsideCapacity="62" length="5"/>
    <parkingArea id="pa-117590606" lane="-117590606_0" roadsideCapacity="62" length="5"/>
    <parkingArea id="pa-117590607" lane="-117590607_0" roadsideCapacity="18" length="5"/>
    <parkingArea id="pa-117590609" lane="-117590609_0" roadsideCapacity="22" length="5"/>
    <parkingArea id="pa-117590612" lane="-117590612_0" roadsideCapacity="41" length="5"/>
    <parkingArea id="pa-117590613" lane="-117590613_0" roadsideCapacity="31" length="5"/>
    <parkingArea id="pa-117590614" lane="-117590614_0" roadsideCapacity="58" length="5"/>
    <parkingArea id="pa-117623505" lane="-117623505_0" roadsideCapacity="25" length="5"/>
    <parkingArea id="pa-117623507" lane="-117623507_0" roadsideCapacity="29" length="5"/>
    <parkingArea id="pa-117624636#0" lane="-117624636#0_0" roadsideCapacity="16" length="5"/>
    <parkingArea id="pa-117624636#1" lane="-117624636#1_0" roadsideCapacity="9" length="5"/>
    <parkingArea id="pa-117624637#0" lane="-117624637#0_0" roadsideCapacity="38" length="5"/>
    <parkingArea id="pa-117624637#1" lane="-117624637#1_0" roadsideCapacity="10" length="5"/>
    <parkingArea id="pa-117625588" lane="-117625588_0" roadsideCapacity="18" length="5"/>
    <parkingArea id="pa-117625593" lane="-117625593_0" roadsideCapacity="19" length="5"/>
    <parkingArea id="pa-117626378" lane="-117626378_0" roadsideCapacity="11" length="5"/>
    <parkingArea id="pa-117626379" lane="-117626379_0" roadsideCapacity="20" length="5"/>
    <parkingArea id="pa-117626380" lane="-117626380_0" roadsideCapacity="25" length="5"/>
    <parkingArea id="pa-117626381" lane="-117626381_0" roadsideCapacity="24" length="5"/>
    <parkingArea id="pa-117626823#0" lane="-117626823#0_0" roadsideCapacity="24" length="5"/>
    <parkingArea id="pa-117626823#1" lane="-117626823#1_0" roadsideCapacity="15" length="5"/>
    <parkingArea id="pa-117626824" lane="-117626824_0" roadsideCapacity="35" length="5"/>
    <parkingArea id="pa-117626826" lane="-117626826_0" roadsideCapacity="40" length="5"/>
    <parkingArea id="pa-117631282" lane="-117631282_0" roadsideCapacity="3" length="5"/>
    <parkingArea id="pa-117631287#0" lane="-117631287#0_0" roadsideCapacity="10" length="5"/>
    <parkingArea id="pa-117631287#1" lane="-117631287#1_0" roadsideCapacity="7" length="5"/>
    <parkingArea id="pa-117631290" lane="-117631290_0" roadsideCapacity="8" length="5"/>
    <parkingArea id="pa-117631291#0" lane="-117631291#0_0" roadsideCapacity="13" length="5"/>
    <parkingArea id="pa-117631291#1" lane="-117631291#1_0" roadsideCapacity="15" length="5"/>
    <parkingArea id="pa-117631292" lane="-117631292_0" roadsideCapacity="2" length="5"/>
    <parkingArea id="pa-117632023" lane="-117632023_0" roadsideCapacity="29" length="5"/>
    <parkingArea id="pa-117632809" lane="-117632809_0" roadsideCapacity="18" length="5"/>
    <parkingArea id="pa-117639101#0" lane="-117639101#0_0" roadsideCapacity="29" length="5"/>
    <parkingArea id="pa-117639101#1" lane="-117639101#1_0" roadsideCapacity="6" length="5"/>
    <parkingArea id="pa-117643608" lane="-117643608_0" roadsideCapacity="17" length="5"/>
    <parkingArea id="pa-117643614#0" lane="-117643614#0_0" roadsideCapacity="16" length="5"/>
    <parkingArea id="pa-117643614#1" lane="-117643614#1_0" roadsideCapacity="6" length="5"/>
    <parkingArea id="pa-117643616" lane="-117643616_0" roadsideCapacity="7" length="5"/>
    <parkingArea id="pa-117643622" lane="-117643622_0" roadsideCapacity="2" length="5"/>
    <parkingArea id="pa-117643624" lane="-117643624_0" roadsideCapacity="8" length="5"/>
    <parkingArea id="pa-117649850#0" lane="-117649850#0_0" roadsideCapacity="17" length="5"/>
    <parkingArea id="pa-117649850#1" lane="-117649850#1_0" roadsideCapacity="15" length="5"/>
    <parkingArea id="pa-117649858" lane="-117649858_0" roadsideCapacity="15" length="5"/>
    <parkingArea id="pa-117649862#0" lane="-117649862#0_0" roadsideCapacity="9" length="5"/>
    <parkingArea id="pa-117649862#1" lane="-117649862#1_0" roadsideCapacity="5" length="5"/>
    <parkingArea id="pa-117649862#2" lane="-117649862#2_0" roadsideCapacity="8" length="5"/>
    <parkingArea id="pa-117649868" lane="-117649868_0" roadsideCapacity="14" length="5"/>
    <parkingArea id="pa-117649887" lane="-117649887_0" roadsideCapacity="17" length="5"/>
    <parkingArea id="pa-117654815#0" lane="-117654815#0_0" roadsideCapacity="11" length="5"/>
    <parkingArea id="pa-117654815#3" lane="-117654815#3_0" roadsideCapacity="12" length="5"/>
    <parkingArea id="pa-117654817" lane="-117654817_0" roadsideCapacity="6" length="5"/>
    <parkingArea id="pa-117654819#0" lane="-117654819#0_0" roadsideCapacity="18" length="5"/>
    <parkingArea id="pa-117654819#1" lane="-117654819#1_0" roadsideCapacity="8" length="5"/>
    <parkingArea id="pa-117654826" lane="-117654826_0" roadsideCapacity="48" length="5"/>
    <parkingArea id="pa-117656063#0" lane="-117656063#0_0" roadsideCapacity="3" length="5"/>
    <parkingArea id="pa-117656063#1" lane="-117656063#1_0" roadsideCapacity="19" length="5"/>
    <parkingArea id="pa-117656067#0" lane="-117656067#0_0" roadsideCapacity="18" length="5"/>
    <parkingArea id="pa-117656067#1" lane="-117656067#1_0" roadsideCapacity="7" length="5"/>
    <parkingArea id="pa-118155448" lane="-118155448_0" roadsideCapacity="15" length="5"/>
    <parkingArea id="pa-118155450" lane="-118155450_0" roadsideCapacity="12" length="5"/>
    <parkingArea id="pa-118155452#0" lane="-118155452#0_0" roadsideCapacity="19" length="5"/>
    <parkingArea id="pa-118155452#1" lane="-118155452#1_0" roadsideCapacity="17" length="5"/>
    <parkingArea id="pa-118155453" lane="-118155453_0" roadsideCapacity="16" length="5"/>
    <parkingArea id="pa-118155456#0" lane="-118155456#0_0" roadsideCapacity="28" length="5"/>
    <parkingArea id="pa-118155456#1" lane="-118155456#1_0" roadsideCapacity="65" length="5"/>
    <parkingArea id="pa-118155456#2" lane="-118155456#2_0" roadsideCapacity="18" length="5"/>
    <parkingArea id="pa-118155460" lane="-118155460_0" roadsideCapacity="10" length="5"/>
    <parkingArea id="pa-118864079#0" lane="-118864079#0_0" roadsideCapacity="27" length="5"/>
    <parkingArea id="pa-118864079#1" lane="-118864079#1_0" roadsideCapacity="14" length="5"/>
    <parkingArea id="pa-118864079#2" lane="-118864079#2_0" roadsideCapacity="21" length="5"/>
    <parkingArea id="pa-118864079#3" lane="-118864079#3_0" roadsideCapacity="54" length="5"/>
    <parkingArea id="pa-118864079#4" lane="-118864079#4_0" roadsideCapacity="17" length="5"/>
    <parkingArea id="pa-118864084" lane="-118864084_0" roadsideCapacity="16" length="5"/>
    <parkingArea id="pa-118864085" lane="-118864085_0" roadsideCapacity="17" length="5"/>
    <parkingArea id="pa-118869284#0" lane="-118869284#0_0" roadsideCapacity="16" length="5"/>
    <parkingArea id="pa-118869284#1" lane="-118869284#1_0" roadsideCapacity="17" length="5"/>
    <parkingArea id="pa-118869285" lane="-118869285_0" roadsideCapacity="3" length="5"/>
    <parkingArea id="pa-118869287" lane="-118869287_0" roadsideCapacity="15" length="5"/>
    <parkingArea id="pa-121411748#1" lane="-121411748#1_0" roadsideCapacity="1" length="5"/>
    <parkingArea id="pa-121411749#0" lane="-121411749#0_0" roadsideCapacity="17" length="5"/>
    <parkingArea id="pa-121411752" lane="-121411752_0" roadsideCapacity="3" length="5"/>
    <parkingArea id="pa-121411754" lane="-121411754_0" roadsideCapacity="22" length="5"/>
    <parkingArea id="pa-122388448#0" lane="-122388448#0_0" roadsideCapacity="30" length="5"/>
    <parkingArea id="pa-122388448#1" lane="-122388448#1_0" roadsideCapacity="1" length="5"/>
    <parkingArea id="pa-122398104" lane="-122398104_0" roadsideCapacity="10" length="5"/>
    <parkingArea id="pa-122529094#0" lane="-122529094#0_0" roadsideCapacity="15" length="5"/>
    <parkingArea id="pa-122529094#1" lane="-122529094#1_0" roadsideCapacity="13" length="5"/>
    <parkingArea id="pa-122529094#10" lane="-122529094#10_0" roadsideCapacity="10" length="5"/>
    <parkingArea id="pa-122529094#2" lane="-122529094#2_0" roadsideCapacity="18" length="5"/>
    <parkingArea id="pa-122529094#3" lane="-122529094#3_0" roadsideCapacity="20" length="5"/>
    <parkingArea id="pa-122529094#4" lane="-122529094#4_0" roadsideCapacity="37" length="5"/>
    <parkingArea id="pa-122529094#5" lane="-122529094#5_0" roadsideCapacity="43" length="5"/>
    <parkingArea id="pa-122529094#6" lane="-122529094#6_0" roadsideCapacity="20" length="5"/>
    <parkingArea id="pa-122529094#7" lane="-122529094#7_0" roadsideCapacity="28" length="5"/>
    <parkingArea id="pa-122529094#8" lane="-122529094#8_0" roadsideCapacity="29" length="5"/>
    <parkingArea id="pa-122529094#9" lane="-122529094#9_0" roadsideCapacity="19" length="5"/>
    <parkingArea id="pa-122529096#0" lane="-122529096#0_0" roadsideCapacity="19" length="5"/>
    <parkingArea id="pa-122529096#1" lane="-122529096#1_0" roadsideCapacity="37" length="5"/>
    <parkingArea id="pa-122529096#2" lane="-122529096#2_0" roadsideCapacity="7" length="5"/>
    <parkingArea id="pa-122529096#3" lane="-122529096#3_0" roadsideCapacity="34" length="5"/>
    <parkingArea id="pa-122529096#4" lane="-122529096#4_0" roadsideCapacity="21" length="5"/>
    <parkingArea id="pa-122529096#5" lane="-122529096#5_0" roadsideCapacity="29" length="5"/>
    <parkingArea id="pa-122529096#6" lane="-122529096#6_0" roadsideCapacity="29" length="5"/>
    <parkingArea id="pa-122529096#7" lane="-122529096#7_0" roadsideCapacity="18" length="5"/>
    <parkingArea id="pa-122529096#8" lane="-122529096#8_0" roadsideCapacity="10" length="5"/>
    <parkingArea id="pa-122529098#0" lane="-122529098#0_0" roadsideCapacity="13" length="5"/>
    <parkingArea id="pa-122529098#1" lane="-122529098#1_0" roadsideCapacity="29" length="5"/>
    <parkingArea id="pa-122529099" lane="-122529099_0" roadsideCapacity="37" length="5"/>
    <parkingArea id="pa-122529100" lane="-122529100_0" roadsideCapacity="5" length="5"/>
    <parkingArea id="pa-122529101" lane="-122529101_0" roadsideCapacity="18" length="5"/>
    <parkingArea id="pa-122529102#0" lane="-122529102#0_0" roadsideCapacity="23" length="5"/>
    <parkingArea id="pa-122529102#1" lane="-122529102#1_0" roadsideCapacity="18" length="5"/>
    <parkingArea id="pa-122529102#2" lane="-122529102#2_0" roadsideCapacity="17" length="5"/>
    <parkingArea id="pa-122529102#3" lane="-122529102#3_0" roadsideCapacity="16" length="5"/>
    <parkingArea id="pa-122529102#4" lane="-122529102#4_0" roadsideCapacity="9" length="5"/>
    <parkingArea id="pa-122529103" lane="-122529103_0" roadsideCapacity="5" length="5"/>
    <parkingArea id="pa-122529104#0" lane="-122529104#0_0" roadsideCapacity="17" length="5"/>
    <parkingArea id="pa-122529104#1" lane="-122529104#1_0" roadsideCapacity="9" length="5"/>
    <parkingArea id="pa-122529104#2" lane="-122529104#2_0" roadsideCapacity="17" length="5"/>
    <parkingArea id="pa-122529104#3" lane="-122529104#3_0" roadsideCapacity="21" length="5"/>
    <parkingArea id="pa-122529104#4" lane="-122529104#4_0" roadsideCapacity="38" length="5"/>
    <parkingArea id="pa-122529105" lane="-122529105_0" roadsideCapacity="5" length="5"/>
    <parkingArea id="pa-122529109" lane="-122529109_0" roadsideCapacity="5" length="5"/>
    <parkingArea id="pa-122529110" lane="-122529110_0" roadsideCapacity="24" length="5"/>
    <parkingArea id="pa-122529114#0" lane="-122529114#0_0" roadsideCapacity="17" length="5"/>
    <parkingArea id="pa-122529114#1" lane="-122529114#1_0" roadsideCapacity="14" length="5"/>
    <parkingArea id="pa-122529114#2" lane="-122529114#2_0" roadsideCapacity="17" length="5"/>
    <parkingArea id="pa-122529115" lane="-122529115_0" roadsideCapacity="5" length="5"/>
    <parkingArea id="pa-122529992" lane="-122529992_0" roadsideCapacity="51" length="5"/>
    <parkingArea id="pa-123037083" lane="-123037083_0" roadsideCapacity="37" length="5"/>
    <parkingArea id="pa-124419860" lane="-124419860_0" roadsideCapacity="14" length="5"/>
    <parkingArea id="pa-124537762" lane="-124537762_0" roadsideCapacity="53" length="5"/>
    <parkingArea id="pa-125067902" lane="-125067902_0" roadsideCapacity="34" length="5"/>
    <parkingArea id="pa-125351107" lane="-125351107_0" roadsideCapacity="18" length="5"/>
    <parkingArea id="pa-125351109" lane="-125351109_0" roadsideCapacity="21" length="5"/>
    <parkingArea id="pa-125351110" lane="-125351110_0" roadsideCapacity="16" length="5"/>
    <parkingArea id="pa-125351113" lane="-125351113_0" roadsideCapacity="5" length="5"/>
    <parkingArea id="pa-125351135" lane="-125351135_0" roadsideCapacity="14" length="5"/>
    <parkingArea id="pa-125351146" lane="-125351146_0" roadsideCapacity="5" length="5"/>
    <parkingArea id="pa-125351162#0" lane="-125351162#0_0" roadsideCapacity="9" length="5"/>
    <parkingArea id="pa-125351162#1" lane="-125351162#1_0" roadsideCapacity="10" length="5"/>
    <parkingArea id="pa-125351165#0" lane="-125351165#0_0" roadsideCapacity="16" length="5"/>
    <parkingArea id="pa-125351165#1" lane="-125351165#1_0" roadsideCapacity="15" length="5"/>
    <parkingArea id="pa-125589533" lane="-125589533_0" roadsideCapacity="2" length="5"/>
    <parkingArea id="pa-125663406" lane="-125663406_0" roadsideCapacity="15" length="5"/>
    <parkingArea id="pa-125684096" lane="-125684096_0" roadsideCapacity="17" length="5"/>
    <parkingArea id="pa-125689487#0" lane="-125689487#0_0" roadsideCapacity="25" length="5"/>
    <parkingArea id="pa-125689487#1" lane="-125689487#1_0" roadsideCapacity="10" length="5"/>
    <parkingArea id="pa-125689487#2" lane="-125689487#2_0" roadsideCapacity="15" length="5"/>
    <parkingArea id="pa-125689487#3" lane="-125689487#3_0" roadsideCapacity="17" length="5"/>
    <parkingArea id="pa-125693711" lane="-125693711_0" roadsideCapacity="105" length="5"/>
    <parkingArea id="pa-125693715" lane="-125693715_0" roadsideCapacity="1" length="5"/>
    <parkingArea id="pa-126140573#3" lane="-126140573#3_0" roadsideCapacity="1" length="5"/>
    <parkingArea id="pa-126449197" lane="-126449197_0" roadsideCapacity="2" length="5"/>
    <parkingArea id="pa-126449297#0" lane="-126449297#0_0" roadsideCapacity="11" length="5"/>
    <parkingArea id="pa-126449297#1" lane="-126449297#1_0" roadsideCapacity="20" length="5"/>
    <parkingArea id="pa-126709272#0" lane="-126709272#0_0" roadsideCapacity="12" length="5"/>
    <parkingArea id="pa-126709272#1" lane="-126709272#1_0" roadsideCapacity="4" length="5"/>
    <parkingArea id="pa-126905628#0" lane="-126905628#0_0" roadsideCapacity="11" length="5"/>
    <parkingArea id="pa-126905630" lane="-126905630_0" roadsideCapacity="23" length="5"/>
    <parkingArea id="pa-126905635" lane="-126905635_0" roadsideCapacity="5" length="5"/>
    <parkingArea id="pa-126905984" lane="-126905984_0" roadsideCapacity="29" length="5"/>
    <parkingArea id="pa-126906449" lane="-126906449_0" roadsideCapacity="11" length="5"/>
    <parkingArea id="pa-127207622" lane="-127207622_0" roadsideCapacity="11" length="5"/>
    <parkingArea id="pa-127604675#0" lane="-127604675#0_0" roadsideCapacity="31" length="5"/>
    <parkingArea id="pa-127604675#1" lane="-127604675#1_0" roadsideCapacity="15" length="5"/>
    <parkingArea id="pa-127604675#2" lane="-127604675#2_0" roadsideCapacity="15" length="5"/>
    <parkingArea id="pa-127605823#0" lane="-127605823#0_0" roadsideCapacity="11" length="5"/>
    <parkingArea id="pa-127605823#1" lane="-127605823#1_0" roadsideCapacity="8" length="5"/>