<?xml version="1.0" encoding="utf-8"?>
<routes>
 <trip depart="1.0" departLane="best" departSpeed="max" from="-30140997" id="rs_c000_i000_9" to="-352568703"/>
 <trip depart="5.0" departLane="best" departSpeed="max" from="209234444" id="rs_c001_i000_9" to="4952778#0"/>
 <trip depart="12.0" departLane="best" departSpeed="max" from="-217548735" id="rs_c000_i000_137" to="-372445340#0"/>
 <trip depart="16.0" departLane="best" departSpeed="max" from="-607687261#1" id="rs_c000_i000_186" to="-607687261#0"/>
 <trip depart="25.0" departLane="best" departSpeed="max" from="-367319945#0" id="rs_c000_i000_295" to="151911876"/>
 <trip depart="30.0" departLane="best" departSpeed="max" from="-324547492" id="rs_c001_i000_51" to="-316340789"/>
 <trip depart="35.0" departLane="best" departSpeed="max" from="35605874#2" id="rs_c000_i000_411" to="35605874#3"/>
 <trip depart="37.0" departLane="best" departSpeed="max" from="-4238018#0" id="rs_c001_i000_78" to="-192596483"/>
 <trip depart="37.0" departLane="best" departSpeed="max" from="4238028#0" id="rs_c001_i000_79" to="4238027"/>
 <trip depart="38.0" departLane="best" departSpeed="max" from="-5067354#1" id="rs_c000_i000_437" to="-5067354#0"/>
 <trip depart="43.0" departLane="best" departSpeed="max" from="-95212556" id="rs_c000_i000_487" to="-96809695#2"/>
 <trip depart="45.0" departLane="best" departSpeed="max" from="145737637#0" id="rs_c001_i000_97" to="145737637#1"/>
 <trip depart="47.0" departLane="best" departSpeed="max" from="703967713" id="rs_c001_i000_103" to="4233684"/>
 <trip depart="49.0" departLane="best" departSpeed="max" from="-286243203#1" id="rs_c000_i000_554" to="-286243203#0"/>
 <trip depart="52.0" departLane="best" departSpeed="max" from="-118869284#1" id="rs_c000_i000_598" to="122529094#4"/>
 <trip depart="53.0" departLane="best" departSpeed="max" from="30326559" id="rs_c000_i000_612" to="30326560"/>
 <trip depart="54.0" departLane="best" departSpeed="max" from="122529104#4" id="rs_c000_i000_635" to="-95937728#1"/>
 <trip depart="57.0" departLane="best" departSpeed="max" from="462046218" id="rs_c000_i000_673" to="-30141086#0"/>
 <trip depart="57.0" departLane="best" departSpeed="max" from="-84017983" id="rs_c000_i000_678" to="84656707#1"/>
 <trip depart="60.0" departLane="best" departSpeed="max" from="-15242127#1" id="rs_c000_i000_711" to="26368656#1"/>
 <trip depart="65.0" departLane="best" departSpeed="max" from="-4872089" id="rs_c000_i000_763" to="79884614"/>
 <trip depart="67.0" departLane="best" departSpeed="max" from="-84017983" id="rs_c000_i001_97" to="-84656707#0"/>
 <trip depart="67.0" departLane="best" departSpeed="max" from="-118869284#0" id="rs_c000_i000_782" to="122529104#4"/>
 <trip depart="73.0" departLane="best" departSpeed="max" from="71284390#0" id="rs_c000_i001_104" to="71284390#1"/>
 <trip depart="74.0" departLane="best" departSpeed="max" from="-95100609" id="rs_c000_i000_864" to="-301145897"/>
 <trip depart="76.0" departLane="best" departSpeed="max" from="117099159#2" id="rs_c000_i000_885" to="26085515#4"/>
 <trip depart="79.0" departLane="best" departSpeed="max" from="-63322102#1" id="rs_c000_i000_918" to="-63322102#0"/>
 <trip depart="80.0" departLane="best" departSpeed="max" from="96915239#1" id="rs_c000_i000_928" to="213132380"/>
 <trip depart="82.0" departLane="best" departSpeed="max" from="-5234278#1" id="rs_c000_i000_940" to="202342090#1"/>
 <trip depart="82.0" departLane="best" departSpeed="max" from="-136721672" id="rs_c000_i000_947" to="-852319713#0"/>
 <trip depart="84.0" departLane="best" departSpeed="max" from="-23197959" id="rs_c000_i000_966" to="212690608#2"/>
 <trip depart="89.0" departLane="best" departSpeed="max" from="-24429416" id="rs_c000_i000_1016" to="86714180#1"/>
 <trip depart="90.0" departLane="best" departSpeed="max" from="51340803#0" id="rs_c001_i000_189" to="51340803#1"/>
 <trip depart="93.0" departLane="best" departSpeed="max" from="24423403#5" id="rs_c000_i000_1064" to="24423403#6"/>
 <trip depart="96.0" departLane="best" departSpeed="max" from="-14573382#2" id="rs_c001_i000_205" to="-14573382#1"/>
 <trip depart="97.0" departLane="best" departSpeed="max" from="-30471057#0" id="rs_c000_i000_1122" to="6927279"/>
 <trip depart="100.0" departLane="best" departSpeed="max" from="84017451#0" id="rs_c000_i000_1143" to="-84016143"/>
 <trip depart="106.0" departLane="best" departSpeed="max" from="-94087966" id="rs_c000_i001_157" to="-30471451"/>
 <trip depart="107.0" departLane="best" departSpeed="max" from="39644113#0" id="rs_c000_i000_1214" to="30290973"/>
 <trip depart="107.0" departLane="best" departSpeed="max" from="-333144425" id="rs_c000_i002_23" to="-333144397"/>
 <trip depart="109.0" departLane="best" departSpeed="max" from="6935285#0" id="rs_c000_i000_1228" to="145737637#1"/>
 <trip depart="111.0" departLane="best" departSpeed="max" from="-42902346#1" id="rs_c000_i000_1260" to="28918381#4"/>
 <trip depart="113.0" departLane="best" departSpeed="max" from="125689487#3" id="rs_c000_i000_1282" to="25894166#0"/>
 <trip depart="113.0" departLane="best" departSpeed="max" from="-76987970" id="rs_c000_i000_1283" to="29508076"/>
 <trip depart="118.0" departLane="best" departSpeed="max" from="-136721667" id="rs_c000_i000_1338" to="-852319713#2"/>
 <trip depart="119.0" departLane="best" departSpeed="max" from="-212694593#3" id="rs_c000_i000_1201" to="-212694593#2"/>
 <trip depart="120.0" departLane="best" departSpeed="max" from="10501707" id="rs_c000_i000_1353" to="-24049140#0"/>
 <trip depart="124.0" departLane="best" departSpeed="max" from="4244655" id="rs_c000_i000_1413" to="644345097"/>
 <trip depart="126.0" departLane="best" departSpeed="max" from="-607687261#0" id="rs_c000_i000_1434" to="-140536663"/>
 <trip depart="133.0" departLane="best" departSpeed="max" from="4233517#1" id="rs_c000_i001_196" to="34495949"/>
 <trip depart="134.0" departLane="best" departSpeed="max" from="-117099153" id="rs_c000_i000_1508" to="26040355#2"/>
 <trip depart="136.0" departLane="best" departSpeed="max" from="703967772" id="rs_c001_i000_276" to="703967773"/>
 <trip depart="137.0" departLane="best" departSpeed="max" from="10516236" id="rs_c000_i002_32" to="333156355"/>
 <trip depart="144.0" departLane="best" departSpeed="max" from="4229458#0" id="rs_c001_i000_292" to="4229458#1"/>
 <trip depart="145.0" departLane="best" departSpeed="max" from="889565311#1" id="rs_c000_i000_1639" to="83173307#1"/>
 <trip depart="146.0" departLane="best" departSpeed="max" from="-328040089" id="rs_c000_i000_1649" to="-188653321"/>
 <trip depart="151.0" departLane="best" departSpeed="max" from="-28918381#4" id="rs_c000_i000_1713" to="-28918381#3"/>
 <trip depart="161.66" departLane="best" departSpeed="max" from="96718348#0" id="rs_c001_i000_28" to="96718347"/>
 <trip depart="164.0" departLane="best" departSpeed="max" from="-118869284#1" id="rs_c000_i000_1842" to="118869284#1"/>
 <trip depart="164.0" departLane="best" departSpeed="max" from="-335084841#0" id="rs_c000_i002_40" to="-5234378"/>
 <trip depart="165.0" departLane="best" departSpeed="max" from="212687129#1" id="rs_c000_i001_248" to="212687129#2"/>
 <trip depart="178.0" departLane="best" departSpeed="max" from="-77806130" id="rs_c000_i000_1989" to="-71233702"/>
 <trip depart="181.0" departLane="best" departSpeed="max" from="-95937723" id="rs_c000_i000_555" to="-95937728#3"/>
 <trip depart="181.0" departLane="best" departSpeed="max" from="118869284#0" id="rs_c000_i000_2018" to="118869284#1"/>
 <trip depart="187.0" departLane="best" departSpeed="max" from="-95937723" id="rs_c000_i000_1137" to="-95937728#3"/>
 <trip depart="188.0" departLane="best" departSpeed="max" from="-62071809#1" id="rs_c001_i000_363" to="-61102971#0"/>
 <trip depart="193.0" departLane="best" departSpeed="max" from="10500974" id="rs_c001_i000_370" to="-5376397#1"/>
 <trip depart="194.0" departLane="best" departSpeed="max" from="-379530234" id="rs_c001_i001_48" to="-138666583"/>
 <trip depart="201.46" departLane="best" departSpeed="max" from="364586640#1" id="rs_c000_i000_1814" to="364586640#2"/>
 <trip depart="205.0" departLane="best" departSpeed="max" from="626942404#1" id="rs_c000_i000_2276" to="-117099170"/>
 <trip depart="209.0" departLane="best" departSpeed="max" from="-765843955" id="rs_c000_i000_2309" to="26959968#1"/>
 <trip depart="212.0" departLane="best" departSpeed="max" from="-136864084#1" id="rs_c001_i000_412" to="-136864084#0"/>
 <trip depart="212.0" departLane="best" departSpeed="max" from="4229476" id="rs_c000_i000_2345" to="96202733"/>
 <trip depart="212.0" departLane="best" departSpeed="max" from="-126905635" id="rs_c000_i000_2347" to="-126905630"/>
 <trip depart="213.0" departLane="best" departSpeed="max" from="-42792917#0" id="rs_c000_i000_2348" to="117656063#0"/>
 <trip depart="213.0" departLane="best" departSpeed="max" from="300981184#1" id="rs_c000_i000_2358" to="-4361529#0"/>
 <trip depart="214.0" departLane="best" departSpeed="max" from="-369150317#0" id="rs_c000_i000_2371" to="-132047178"/>
 <trip depart="215.0" departLane="best" departSpeed="max" from="25361892#3" id="rs_c001_i000_417" to="25361892#4"/>
 <trip depart="216.0" departLane="best" departSpeed="max" from="-95952109" id="rs_c001_i000_422" to="331377546"/>
 <trip depart="219.0" departLane="best" departSpeed="max" from="906802009" id="rs_c001_i000_425" to="94107470"/>
 <trip depart="220.0" departLane="best" departSpeed="max" from="94124202" id="rs_c000_i000_1682_part1" to="96559143"/>
 <trip depart="221.0" departLane="best" departSpeed="max" from="-117589022#2" id="rs_c000_i000_2442" to="-117589022#1"/>
 <trip depart="234.0" departLane="best" departSpeed="max" from="-61371685#0" id="rs_c000_i000_2581" to="-30326685#1"/>
 <trip depart="234.0" departLane="best" departSpeed="max" from="-212690611#1" id="rs_c000_i001_345" to="-212690611#0"/>
 <trip depart="235.0" departLane="best" departSpeed="max" from="-10516147#2" id="rs_c000_i000_2583" to="-10516147#1"/>
 <trip depart="239.0" departLane="best" departSpeed="max" from="-95937723" id="rs_c000_i000_1910" to="-95937728#3"/>
 <trip depart="241.26" departLane="best" departSpeed="max" from="133113957#0" id="rs_c000_i001_75" to="133113956"/>
 <trip depart="242.0" departLane="best" departSpeed="max" from="97097111#1" id="rs_c001_i001_59" to="96596623#1"/>
 <trip depart="242.0" departLane="best" departSpeed="max" from="8064520" id="rs_c000_i000_2658" to="83633194"/>
 <trip depart="246.0" departLane="best" departSpeed="max" from="24423403#2" id="rs_c000_i000_2701" to="24423403#3"/>
 <trip depart="253.0" departLane="best" departSpeed="max" from="-10363546" id="rs_c000_i000_2789_part0" to="125689487#2"/>
 <trip depart="254.0" departLane="best" departSpeed="max" from="-61565968" id="rs_c001_i001_64" to="-61543316#1"/>
 <trip depart="255.0" departLane="best" departSpeed="max" from="34149613" id="rs_c000_i001_378" to="-34149612#0"/>
 <trip depart="258.0" departLane="best" departSpeed="max" from="211042302#0" id="rs_c000_i000_2781" to="211042302#1"/>
 <trip depart="258.0" departLane="best" departSpeed="max" from="24976239" id="rs_c000_i001_383" to="117631284"/>
 <trip depart="260.0" departLane="best" departSpeed="max" from="-15242129#0" id="rs_c000_i001_391" to="-330415869"/>
 <trip depart="262.0" departLane="best" departSpeed="max" from="-79690665#0" id="rs_c000_i000_2876" to="-79690674#0"/>
 <trip depart="265.0" departLane="best" departSpeed="max" from="-63322102#1" id="rs_c000_i000_2907" to="-63322102#0"/>
 <trip depart="268.0" departLane="best" departSpeed="max" from="331540389#1" id="rs_c001_i000_507" to="232123266"/>
 <trip depart="269.0" departLane="best" departSpeed="max" from="-95937723" id="rs_c000_i002_31" to="-95937728#3"/>
 <trip depart="273.0" departLane="best" departSpeed="max" from="73225130#1" id="rs_c001_i000_520_part0" to="35772871"/>
 <trip depart="275.0" departLane="best" departSpeed="max" from="-10436546" id="rs_c001_i000_523" to="51340266#1"/>
 <trip depart="278.0" departLane="best" departSpeed="max" from="-5065975" id="rs_c000_i000_3069" to="20045694#2"/>
 <trip depart="280.0" departLane="best" departSpeed="max" from="94124202" id="rs_c000_i001_369" to="96559143"/>
 <trip depart="293.0" departLane="best" departSpeed="max" from="-78343357" id="rs_c000_i000_3235_part0" to="78049389"/>
 <trip depart="295.0" departLane="best" departSpeed="max" from="4643592" id="rs_c000_i000_3244" to="-4643592"/>
 <trip depart="297.0" departLane="best" departSpeed="max" from="300981184#0" id="rs_c000_i000_3262" to="136864086"/>
 <trip depart="299.0" departLane="best" departSpeed="max" from="6929234#1" id="rs_c000_i000_3290" to="5234969"/>
 <trip depart="309.68" departLane="best" departSpeed="max" from="30714753#0" id="rs_c001_i000_202" to="246109631"/>
 <trip depart="311.0" departLane="best" departSpeed="max" from="94124202" id="rs_c001_i000_535" to="96559143"/>
 <trip depart="311.0" departLane="best" departSpeed="max" from="-290255303#2" id="rs_c000_i000_3424" to="-26165752#0"/>
 <trip depart="311.0" departLane="best" departSpeed="max" from="-122529096#6" id="rs_c000_i000_3427" to="-122529096#5"/>
 <trip depart="312.0" departLane="best" departSpeed="max" from="-24049140#1" id="rs_c000_i001_481" to="-24049140#0"/>
 <trip depart="313.0" departLane="best" departSpeed="max" from="94124202" id="rs_c000_i000_2587" to="96559143"/>
 <trip depart="313.33" departLane="best" departSpeed="max" from="286138967" id="rs_c000_i000_1328" to="286138965"/>
 <trip depart="314.0" departLane="best" departSpeed="max" from="349896687#1" id="rs_c000_i000_3457" to="-83163108"/>
 <trip depart="315.0" departLane="best" departSpeed="max" from="-14573382#2" id="rs_c000_i000_3463" to="-14573382#1"/>
 <trip depart="315.0" departLane="best" departSpeed="max" from="-10425852" id="rs_c000_i001_487" to="-14573382#2"/>
 <trip depart="321.0" departLane="best" departSpeed="max" from="358697049#2" id="rs_c000_i001_498" to="358697049#3"/>
 <trip depart="329.0" departLane="best" departSpeed="max" from="-20179292#0" id="rs_c000_i000_3634" to="-211129670#0"/>
 <trip depart="331.0" departLane="best" departSpeed="max" from="-30098515" id="rs_c000_i000_3643" to="-300418853"/>
 <trip depart="331.57" departLane="best" departSpeed="max" from="133113957#0" id="rs_c000_i000_558" to="133113956"/>
 <trip depart="332.62" departLane="best" departSpeed="max" from="133113957#0" id="rs_c000_i000_293" to="133113956"/>
 <trip depart="336.0" departLane="best" departSpeed="max" from="-211042371" id="rs_c000_i000_3694" to="211042302#0"/>
 <trip depart="338.0" departLane="best" departSpeed="max" from="-5137908#0" id="rs_c001_i000_643" to="-62116506#0"/>
 <trip depart="338.0" departLane="best" departSpeed="max" from="-314424813" id="rs_c000_i000_3721" to="-102282708#0"/>
 <trip depart="339.0" departLane="best" departSpeed="max" from="-95937723" id="rs_c000_i000_2366" to="-95937728#3"/>
 <trip depart="339.0" departLane="best" departSpeed="max" from="4238091#1" id="rs_c000_i000_3381" to="4952735#0"/>
 <trip depart="342.0" departLane="best" departSpeed="max" from="-38336405#0" id="rs_c000_i000_3759" to="35772871"/>
 <trip depart="343.0" departLane="best" departSpeed="max" from="367315276" id="rs_c000_i000_3781" to="367315282"/>
 <trip depart="344.0" departLane="best" departSpeed="max" from="94124202" id="rs_c000_i000_2251" to="96559143"/>
 <trip depart="354.0" departLane="best" departSpeed="max" from="10516236" id="rs_c000_i000_3885" to="333156355"/>
 <trip depart="354.0" departLane="best" departSpeed="max" from="-26295654#3" id="rs_c000_i000_3887" to="98158885#2"/>
 <trip depart="355.32" departLane="best" departSpeed="max" from="30714753#0" id="rs_c000_i001_169" to="246109631"/>
 <trip depart="358.0" departLane="best" departSpeed="max" from="86527638#1" id="rs_c000_i000_3936" to="-349909771"/>
 <trip depart="360.49" departLane="best" departSpeed="max" from="286138967" id="rs_c000_i000_964" to="286138965"/>
 <trip depart="361.0" departLane="best" departSpeed="max" from="331558619#0" id="rs_c000_i000_3970" to="331558619#1"/>
 <trip depart="363.0" departLane="best" departSpeed="max" from="24398203#0" id="rs_c000_i000_3987" to="24398203#1"/>
 <trip depart="363.0" departLane="best" departSpeed="max" from="-5230785" id="rs_c000_i000_3989" to="-328253310#1"/>
 <trip depart="363.0" departLane="best" departSpeed="max" from="-75554984" id="rs_c000_i000_3990" to="-205258663#0"/>
 <trip depart="364.0" departLane="best" departSpeed="max" from="166533654#1" id="rs_c001_i000_690" to="30529010#1"/>
 <trip depart="365.0" departLane="best" departSpeed="max" from="-95212556" id="rs_c000_i000_4007" to="-96809695#2"/>
 <trip depart="366.0" departLane="best" departSpeed="max" from="-349902607#0" id="rs_c001_i000_693" to="349902606#0"/>
 <trip depart="367.35" departLane="best" departSpeed="max" from="286138967" id="rs_c000_i000_1390" to="286138965"/>
 <trip depart="372.35" departLane="best" departSpeed="max" from="133113957#0" id="rs_c001_i001_9" to="133113956"/>
 <trip depart="373.62" departLane="best" departSpeed="max" from="286138967" id="rs_c000_i000_1846" to="286138965"/>
 <trip depart="374.0" departLane="best" departSpeed="max" from="24405148" id="rs_c000_i000_4116" to="43312495"/>
 <trip depart="375.26" departLane="best" departSpeed="max" from="133113957#0" id="rs_c000_i000_251" to="133113956"/>
 <trip depart="376.78" departLane="best" departSpeed="max" from="26349689" id="rs_c000_i000_654" to="609759377"/>
 <trip depart="378.0" departLane="best" departSpeed="max" from="-24423403#10" id="rs_c000_i000_4173" to="-125351162#0"/>
 <trip depart="381.0" departLane="best" departSpeed="max" from="117654826" id="rs_c000_i000_4209" to="-117654815#3"/>
 <trip depart="382.0" departLane="best" departSpeed="max" from="4246321" id="rs_c000_i000_4223" to="210994589"/>
 <trip depart="382.0" departLane="best" departSpeed="max" from="-61970060" id="rs_c000_i000_4225" to="-61970062"/>
 <trip depart="382.46" departLane="best" departSpeed="max" from="582286858#1" id="rs_c000_i000_1187" to="980528934"/>
 <trip depart="384.0" departLane="best" departSpeed="max" from="-58603104" id="rs_c000_i000_4247" to="-61523337"/>
 <trip depart="385.0" departLane="best" departSpeed="max" from="-6927021" id="rs_c000_i000_4253" to="-6926949#0"/>
 <trip depart="387.13" departLane="best" departSpeed="max" from="96718348#0" id="rs_c000_i000_3238" to="96718347"/>
 <trip depart="388.0" departLane="best" departSpeed="max" from="5091199" id="rs_c000_i000_4287" to="62059875#1"/>
 <trip depart="389.0" departLane="best" departSpeed="max" from="332195301" id="rs_c000_i000_4297" to="846117751"/>
 <trip depart="391.0" departLane="best" departSpeed="max" from="122529102#4" id="rs_c000_i000_4327" to="24423403#2"/>
 <trip depart="393.0" departLane="best" departSpeed="max" from="-35155912" id="rs_c001_i000_752" to="338862108#2"/>
 <trip depart="394.0" departLane="best" departSpeed="max" from="-52291443" id="rs_c001_i000_753" to="-20179292#0"/>
 <trip depart="394.0" departLane="best" departSpeed="max" from="83488871" id="rs_c001_i000_754" to="83488895#1"/>
 <trip depart="396.21" departLane="best" departSpeed="max" from="286138967" id="rs_c000_i000_571" to="286138965"/>
 <trip depart="400.0" departLane="best" departSpeed="max" from="-208585109#0" id="rs_c000_i000_4416" to="-84656435#0"/>
 <trip depart="404.76" departLane="best" departSpeed="max" from="133113957#0" id="rs_c001_i000_224" to="133113956"/>
 <trip depart="406.0" departLane="best" departSpeed="max" from="84639218" id="rs_c000_i000_4508" to="339725034"/>
 <trip depart="406.0" departLane="best" departSpeed="max" from="25767797#0" id="rs_c000_i001_625" to="102332991"/>
 <trip depart="409.03" departLane="best" departSpeed="max" from="26349689" id="rs_c000_i000_112" to="609759377"/>
 <trip depart="413.21" departLane="best" departSpeed="max" from="30714753#0" id="rs_c001_i000_83" to="246109631"/>
 <trip depart="418.0" departLane="best" departSpeed="max" from="125689487#0" id="rs_c000_i000_4652" to="125689487#1"/>
 <trip depart="420.0" departLane="best" departSpeed="max" from="-212694593#3" id="rs_c000_i000_4420_part1" to="116049443#1"/>
 <trip depart="421.21" departLane="best" departSpeed="max" from="133113957#0" id="rs_c000_i000_1093" to="133113956"/>
 <trip depart="422.0" departLane="best" departSpeed="max" from="-210457775#1" id="rs_c000_i000_4689" to="-210457775#0"/>
 <trip depart="428.0" departLane="best" departSpeed="max" from="-136721675" id="rs_c000_i000_4767" to="-369150317#0"/>
 <trip depart="430.0" departLane="best" departSpeed="max" from="-87397772" id="rs_c001_i000_834" to="10357193"/>
 <trip depart="430.0" departLane="best" departSpeed="max" from="212690609#1" id="rs_c000_i000_4781" to="212687129#1"/>
 <trip depart="430.0" departLane="best" departSpeed="max" from="-117649887" id="rs_c000_i001_666" to="-63322106#0"/>
 <trip depart="431.0" departLane="best" departSpeed="max" from="-23960853#0" id="rs_c000_i000_4802" to="23960868#0"/>
 <trip depart="432.0" departLane="best" departSpeed="max" from="4238006#0" id="rs_c000_i000_4815" to="4238006#1"/>
 <trip depart="433.0" departLane="best" departSpeed="max" from="-126905984" id="rs_c000_i000_4828" to="-217548735"/>
 <trip depart="434.0" departLane="best" departSpeed="max" from="25361892#1" id="rs_c000_i000_4526" to="25361892#2"/>
 <trip depart="434.0" departLane="best" departSpeed="max" from="-147633302#2" id="rs_c001_i000_840" to="5235057"/>
 <trip depart="437.0" departLane="best" departSpeed="max" from="-4232328" id="rs_c000_i000_4872" to="530282945#1"/>
 <trip depart="441.0" departLane="best" departSpeed="max" from="-6935800#0" id="rs_c000_i000_4920" to="133114634"/>
 <trip depart="442.0" departLane="best" departSpeed="max" from="-42792917#2" id="rs_c000_i001_688" to="-42792917#1"/>
 <trip depart="443.0" departLane="best" departSpeed="max" from="-212694590" id="rs_c000_i000_4941" to="-26127182#2"/>
 <trip depart="448.0" departLane="best" departSpeed="max" from="237496664#1" id="rs_c000_i000_3992" to="-224035477"/>
 <trip depart="450.0" departLane="best" departSpeed="max" from="-14573382#0" id="rs_c000_i000_5011" to="30529010#1"/>
 <trip depart="450.0" departLane="best" departSpeed="max" from="-10357406#1" id="rs_c000_i000_5015" to="30326722"/>
 <trip depart="454.0" departLane="best" departSpeed="max" from="76074269" id="rs_c001_i000_885" to="-61970062"/>
 <trip depart="456.0" departLane="best" departSpeed="max" from="210994589" id="rs_c001_i000_889" to="364031092"/>
 <trip depart="456.0" departLane="best" departSpeed="max" from="284410129" id="rs_c000_i002_102" to="28867808#0"/>
 <trip depart="458.67" departLane="best" departSpeed="max" from="24426767#0" id="rs_c000_i000_2502" to="24426767#1"/>
 <trip depart="459.0" departLane="best" departSpeed="max" from="4238091#1" id="rs_c000_i000_4411" to="4952735#0"/>
 <trip depart="460.94" departLane="best" departSpeed="max" from="26349689" id="rs_c000_i000_352" to="609759377"/>
 <trip depart="462.47" departLane="best" departSpeed="max" from="30714753#0" id="rs_c000_i000_1650" to="246109631"/>
 <trip depart="464.0" departLane="best" departSpeed="max" from="-95937723" id="rs_c000_i000_3114" to="-95937728#3"/>
 <trip depart="464.0" departLane="best" departSpeed="max" from="-23197959" id="rs_c000_i001_713" to="212690608#2"/>
 <trip depart="465.0" departLane="best" departSpeed="max" from="-108336183#0" id="rs_c000_i000_5218" to="233428289"/>
 <trip depart="469.0" departLane="best" departSpeed="max" from="-286243201" id="rs_c000_i000_5258" to="-97989561"/>
 <trip depart="474.0" departLane="best" departSpeed="max" from="183247520" id="rs_c000_i001_730" to="183247521#1"/>
 <trip depart="475.0" departLane="best" departSpeed="max" from="-193684946#0" id="rs_c001_i000_920" to="642129591"/>
 <trip depart="475.48" departLane="best" departSpeed="max" from="133113957#0" id="rs_c000_i000_1005" to="133113956"/>
 <trip depart="479.0" departLane="best" departSpeed="max" from="-61579093#0" id="rs_c000_i000_1671" to="-61579094"/>
 <trip depart="481.0" departLane="best" departSpeed="max" from="367006384" id="rs_c000_i000_5379" to="125683982"/>
 <trip depart="482.11" departLane="best" departSpeed="max" from="286138967" id="rs_c000_i000_2642" to="286138965"/>
 <trip depart="485.0" departLane="best" departSpeed="max" from="-147136167" id="rs_c001_i000_940" to="-16345612#0"/>
 <trip depart="486.0" departLane="best" departSpeed="max" from="133114634" id="rs_c000_i000_5423" to="114183032"/>
 <trip depart="489.0" departLane="best" departSpeed="max" from="-316340789" id="rs_c000_i000_5452" to="-5063784"/>
 <trip depart="494.0" departLane="best" departSpeed="max" from="24405148" id="rs_c001_i000_952" to="43312495"/>
 <trip depart="494.0" departLane="best" departSpeed="max" from="25976329#1" id="rs_c000_i000_5516" to="-117623505"/>
 <trip depart="495.28" departLane="best" departSpeed="max" from="30714753#0" id="rs_c000_i000_3444" to="246109631"/>
 <trip depart="498.64" departLane="best" departSpeed="max" from="24426767#0" id="rs_c000_i000_3265" to="24426767#1"/>
 <trip depart="498.94" departLane="best" departSpeed="max" from="582286858#1" id="rs_c001_i000_75" to="980528934"/>
 <trip depart="499.0" departLane="best" departSpeed="max" from="-140420313" id="rs_c000_i000_5572" to="-210993752#0"/>
 <trip depart="503.38" departLane="best" departSpeed="max" from="30692829" id="rs_c000_i000_1679" to="73028104"/>
 <trip depart="503.4" departLane="best" departSpeed="max" from="133113949" id="rs_c000_i000_4395" to="133113951#0"/>
 <trip depart="508.0" departLane="best" departSpeed="max" from="117099156#1" id="rs_c001_i000_982" to="-26085515#0"/>
 <trip depart="509.0" departLane="best" departSpeed="max" from="4229427#2" id="rs_c000_i000_5668" to="26959968#3"/>
 <trip depart="509.75" departLane="best" departSpeed="max" from="133113957#0" id="rs_c000_i000_1738" to="133113956"/>
 <trip depart="510.0" departLane="best" departSpeed="max" from="-237367748#2" id="rs_c000_i000_5681" to="-237367748#1"/>
 <trip depart="511.0" departLane="best" departSpeed="max" from="61982178#0" id="rs_c000_i000_5693" to="-35605874#3"/>
 <trip depart="512.0" departLane="best" departSpeed="max" from="63110748" id="rs_c001_i000_990" to="-136721670#0"/>
 <trip depart="514.0" departLane="best" departSpeed="max" from="94124202" id="rs_c000_i000_4874" to="96559143"/>
 <trip depart="515.24" departLane="best" departSpeed="max" from="133113957#0" id="rs_c000_i000_1181" to="133113956"/>
 <trip depart="516.33" departLane="best" departSpeed="max" from="286138967" id="rs_c000_i000_2406" to="286138965"/>
 <trip depart="526.48" departLane="best" departSpeed="max" from="26349689" id="rs_c000_i000_3086" to="609759377"/>
 <trip depart="527.0" departLane="best" departSpeed="max" from="26040294#0" id="rs_c001_i000_1014" to="26040294#1"/>
 <trip depart="527.0" departLane="best" departSpeed="max" from="-208585109#0" id="rs_c000_i000_5870" to="-84656435#0"/>
 <trip depart="531.0" departLane="best" departSpeed="max" from="28918381#1" id="rs_c001_i000_1026" to="28918381#2"/>
 <trip depart="535.0" departLane="best" departSpeed="max" from="24426767#1" id="rs_c000_i000_5952" to="31713668"/>
 <trip depart="537.21" departLane="best" departSpeed="max" from="26349689" id="rs_c000_i001_419" to="609759377"/>
 <trip depart="538.0" departLane="best" departSpeed="max" from="-212694593#3" id="rs_c001_i000_1005" to="-212694593#2"/>
 <trip depart="540.0" departLane="best" departSpeed="max" from="-10516147#2" id="rs_c001_i000_1049" to="-10516147#1"/>
 <trip depart="544.0" departLane="best" departSpeed="max" from="61279838#1" id="rs_c001_i000_1057" to="-62115255"/>
 <trip depart="544.0" departLane="best" departSpeed="max" from="4952735#0" id="rs_c001_i001_123" to="327225378"/>
 <trip depart="544.0" departLane="best" departSpeed="max" from="364586640#1" id="rs_c000_i000_6037" to="364586640#2"/>
 <trip depart="546.0" departLane="best" departSpeed="max" from="10373960" id="rs_c000_i000_6053" to="-20179292#1"/>
 <trip depart="551.0" departLane="best" departSpeed="max" from="71284400#4" id="rs_c000_i001_835" to="71284400#5"/>
 <trip depart="551.54" departLane="best" departSpeed="max" from="130639533" id="rs_c001_i000_351" to="26349689"/>
 <trip depart="552.0" departLane="best" departSpeed="max" from="-51722315#0" id="rs_c000_i000_6118" to="-51722317"/>
 <trip depart="553.0" departLane="best" departSpeed="max" from="-51306014" id="rs_c000_i000_6131" to="-117649887"/>
 <trip depart="554.0" departLane="best" departSpeed="max" from="183247520" id="rs_c000_i000_6085_part0" to="183247521#1"/>
 <trip depart="554.0" departLane="best" departSpeed="max" from="211199291" id="rs_c001_i000_1082" to="-20179292#1"/>
 <trip depart="557.0" departLane="best" departSpeed="max" from="39979146" id="rs_c001_i000_1087" to="367006382#1"/>
 <trip depart="557.0" departLane="best" departSpeed="max" from="53682403#2" id="rs_c000_i000_6191" to="62789947#1"/>
 <trip depart="560.4" departLane="best" departSpeed="max" from="29689100#0" id="rs_c001_i000_610" to="58097865"/>
 <trip depart="561.33" departLane="best" departSpeed="max" from="582286858#1" id="rs_c000_i000_3511" to="980528934"/>
 <trip depart="562.0" departLane="best" departSpeed="max" from="39644113#0" id="rs_c001_i000_1098" to="52119241"/>
 <trip depart="564.0" departLane="best" departSpeed="max" from="-147633302#2" id="rs_c001_i000_1101" to="5235057"/>
 <trip depart="564.1" departLane="best" departSpeed="max" from="133113957#0" id="rs_c000_i001_267" to="133113956"/>
 <trip depart="566.23" departLane="best" departSpeed="max" from="286138967" id="rs_c000_i000_2620" to="286138965"/>
 <trip depart="567.0" departLane="best" departSpeed="max" from="-5206548" id="rs_c001_i000_1105" to="-205258663#1"/>
 <trip depart="568.0" departLane="best" departSpeed="max" from="62789947#1" id="rs_c000_i000_6308" to="62789947#2"/>