<?xml version="1.0" encoding="utf-8"?>
<routes>
 <trip depart="1.0" departLane="best" departSpeed="max" from="321098632#1" id="rs_c001_i000_0" to="126140573#0"/>
 <trip depart="4.0" departLane="best" departSpeed="max" from="-333156359#0" id="rs_c000_i000_50" to="-156117460"/>
 <trip depart="5.0" departLane="best" departSpeed="max" from="-126709272#1" id="rs_c000_i000_57" to="126709272#1"/>
 <trip depart="6.0" departLane="best" departSpeed="max" from="-8597242#1" id="rs_c000_i000_66" to="-367319945#0"/>
 <trip depart="8.0" departLane="best" departSpeed="max" from="-52673136" id="rs_c000_i000_105" to="-61367454#0"/>
 <trip depart="10.0" departLane="best" departSpeed="max" from="-10420635#1" id="rs_c000_i001_10" to="53277461#3"/>
 <trip depart="13.0" departLane="best" departSpeed="max" from="-117654815#1" id="rs_c000_i000_148" to="-26295654#3"/>
 <trip depart="17.0" departLane="best" departSpeed="max" from="-212690606" id="rs_c000_i000_197" to="-10508541"/>
 <trip depart="17.0" departLane="best" departSpeed="max" from="35722785#1" id="rs_c000_i000_202" to="34733209"/>
 <trip depart="18.0" departLane="best" departSpeed="max" from="-63134322#1" id="rs_c001_i000_31" to="-51722317"/>
 <trip depart="18.0" departLane="best" departSpeed="max" from="26959985" id="rs_c000_i000_209" to="362993459"/>
 <trip depart="19.0" departLane="best" departSpeed="max" from="10516147#0" id="rs_c000_i000_224" to="10516236"/>
 <trip depart="21.0" departLane="best" departSpeed="max" from="-10426053#1" id="rs_c001_i000_35" to="10426000"/>
 <trip depart="22.0" departLane="best" departSpeed="max" from="-45578880" id="rs_c000_i000_260" to="-4341507#0"/>
 <trip depart="25.0" departLane="best" departSpeed="max" from="-367319945#0" id="rs_c000_i000_295" to="151911876"/>
 <trip depart="26.0" departLane="best" departSpeed="max" from="43263108" id="rs_c001_i000_42" to="-61367459"/>
 <trip depart="29.0" departLane="best" departSpeed="max" from="4246321" id="rs_c001_i000_49" to="-4246322#0"/>
 <trip depart="30.0" departLane="best" departSpeed="max" from="-324547492" id="rs_c001_i000_51" to="-316340789"/>
 <trip depart="32.0" departLane="best" departSpeed="max" from="-100018570#0" id="rs_c000_i000_374" to="-100018560"/>
 <trip depart="33.0" departLane="best" departSpeed="max" from="290255300" id="rs_c000_i000_384" to="136721679#2"/>
 <trip depart="34.0" departLane="best" departSpeed="max" from="-8135855" id="rs_c001_i000_67" to="-30471449"/>
 <trip depart="35.0" departLane="best" departSpeed="max" from="-35155912" id="rs_c001_i000_69" to="338862108#2"/>
 <trip depart="36.0" departLane="best" departSpeed="max" from="-39162601" id="rs_c000_i000_416" to="46606594#1"/>
 <trip depart="37.0" departLane="best" departSpeed="max" from="-4238018#0" id="rs_c001_i000_78" to="-192596483"/>
 <trip depart="38.0" departLane="best" departSpeed="max" from="-5067354#1" id="rs_c000_i000_437" to="-5067354#0"/>
 <trip depart="39.0" departLane="best" departSpeed="max" from="-75732915" id="rs_c001_i000_81" to="42557003"/>
 <trip depart="40.0" departLane="best" departSpeed="max" from="-84639229#0" id="rs_c000_i000_455" to="83163106"/>
 <trip depart="41.0" departLane="best" departSpeed="max" from="10557712" id="rs_c000_i000_475" to="-26367999"/>
 <trip depart="41.0" departLane="best" departSpeed="max" from="-579053759" id="rs_c000_i000_476" to="-40109005#0"/>
 <trip depart="45.0" departLane="best" departSpeed="max" from="-116049444#0" id="rs_c000_i000_504" to="-212694593#3"/>
 <trip depart="45.0" departLane="best" departSpeed="max" from="-24423403#10" id="rs_c000_i000_508" to="-125351162#0"/>
 <trip depart="47.0" departLane="best" departSpeed="max" from="-122529096#6" id="rs_c000_i000_529" to="-122529096#5"/>
 <trip depart="49.0" departLane="best" departSpeed="max" from="-286243203#1" id="rs_c000_i000_554" to="-286243203#0"/>
 <trip depart="51.0" departLane="best" departSpeed="max" from="-61997814#0" id="rs_c000_i000_584" to="-233171094#0"/>
 <trip depart="52.0" departLane="best" departSpeed="max" from="138630786" id="rs_c001_i000_113" to="-25542565#1"/>
 <trip depart="53.0" departLane="best" departSpeed="max" from="-188890214" id="rs_c000_i000_610" to="39297416"/>
 <trip depart="53.0" departLane="best" departSpeed="max" from="30326559" id="rs_c000_i000_612" to="30326560"/>
 <trip depart="56.0" departLane="best" departSpeed="max" from="190721768#1" id="rs_c000_i000_665" to="-445997357#0"/>
 <trip depart="57.0" departLane="best" departSpeed="max" from="61496433" id="rs_c000_i001_79" to="-61543316#0"/>
 <trip depart="57.0" departLane="best" departSpeed="max" from="-290255303#2" id="rs_c000_i001_81" to="-26165752#0"/>
 <trip depart="57.0" departLane="best" departSpeed="max" from="209237468" id="rs_c000_i000_672" to="209234444"/>
 <trip depart="57.0" departLane="best" departSpeed="max" from="462046218" id="rs_c000_i000_673" to="-30141086#0"/>
 <trip depart="57.0" departLane="best" departSpeed="max" from="24031456#4" id="rs_c000_i000_681" to="24031456#5"/>
 <trip depart="61.0" departLane="best" departSpeed="max" from="-100018567" id="rs_c001_i000_132" to="-210282070"/>
 <trip depart="63.0" departLane="best" departSpeed="max" from="61669586" id="rs_c000_i002_10" to="-333156359#1"/>
 <trip depart="67.0" departLane="best" departSpeed="max" from="-84017983" id="rs_c000_i001_97" to="-84656707#0"/>
 <trip depart="67.0" departLane="best" departSpeed="max" from="-83488868" id="rs_c001_i000_149" to="-83510232#0"/>
 <trip depart="67.0" departLane="best" departSpeed="max" from="4238091#1" id="rs_c001_i000_151" to="4952735#0"/>
 <trip depart="69.0" departLane="best" departSpeed="max" from="364419352#0" id="rs_c000_i000_810" to="327223066"/>
 <trip depart="70.0" departLane="best" departSpeed="max" from="-32016029#2" id="rs_c001_i000_156" to="-32016029#1"/>
 <trip depart="72.0" departLane="best" departSpeed="max" from="-14573382#2" id="rs_c000_i000_843" to="-14573382#1"/>
 <trip depart="74.0" departLane="best" departSpeed="max" from="-95100609" id="rs_c000_i000_864" to="-301145897"/>
 <trip depart="75.0" departLane="best" departSpeed="max" from="-328253309#0" id="rs_c000_i001_110" to="126449315#0"/>
 <trip depart="75.0" departLane="best" departSpeed="max" from="-237367748#2" id="rs_c000_i000_879" to="4237991"/>
 <trip depart="76.0" departLane="best" departSpeed="max" from="-10425858" id="rs_c000_i000_882" to="-14573382#1"/>
 <trip depart="76.0" departLane="best" departSpeed="max" from="117099159#2" id="rs_c000_i000_885" to="26085515#4"/>
 <trip depart="80.0" departLane="best" departSpeed="max" from="96915239#1" id="rs_c000_i000_928" to="213132380"/>
 <trip depart="82.0" departLane="best" departSpeed="max" from="-5234278#1" id="rs_c000_i000_940" to="202342090#1"/>
 <trip depart="82.0" departLane="best" departSpeed="max" from="-136721672" id="rs_c000_i000_947" to="-852319713#0"/>
 <trip depart="84.0" departLane="best" departSpeed="max" from="-117654815#3" id="rs_c000_i001_120" to="-117654815#2"/>
 <trip depart="84.0" departLane="best" departSpeed="max" from="-23197959" id="rs_c000_i000_966" to="212690608#2"/>
 <trip depart="85.0" departLane="best" departSpeed="max" from="-188890214" id="rs_c000_i000_971" to="39297416"/>
 <trip depart="85.0" departLane="best" departSpeed="max" from="62789947#2" id="rs_c000_i000_975" to="-96945485"/>
 <trip depart="86.0" departLane="best" departSpeed="max" from="4353778#0" id="rs_c000_i000_982" to="-57726375#2"/>
 <trip depart="86.0" departLane="best" departSpeed="max" from="-30141086#0" id="rs_c001_i000_186" to="29712025#0"/>
 <trip depart="86.0" departLane="best" departSpeed="max" from="-62064349" id="rs_c001_i000_187" to="-62064083"/>
 <trip depart="89.0" departLane="best" departSpeed="max" from="-24429416" id="rs_c000_i000_1016" to="86714180#1"/>
 <trip depart="89.0" departLane="best" departSpeed="max" from="26369585" id="rs_c001_i000_194" to="1080298604"/>
 <trip depart="90.0" departLane="best" departSpeed="max" from="51340803#0" id="rs_c001_i000_189" to="51340803#1"/>
 <trip depart="92.0" departLane="best" departSpeed="max" from="-328266345" id="rs_c000_i000_1050" to="-126449197"/>
 <trip depart="93.0" departLane="best" departSpeed="max" from="4238091#1" id="rs_c000_i000_586" to="4952735#0"/>
 <trip depart="93.0" departLane="best" departSpeed="max" from="4643592" id="rs_c000_i001_133" to="-4643592"/>
 <trip depart="94.0" departLane="best" departSpeed="max" from="-95937723" id="rs_c000_i001_93" to="-95937728#3"/>
 <trip depart="96.0" departLane="best" departSpeed="max" from="15242129#1" id="rs_c000_i000_1095" to="-330415869"/>
 <trip depart="96.0" departLane="best" departSpeed="max" from="-14573382#2" id="rs_c001_i000_205" to="-14573382#1"/>
 <trip depart="97.0" departLane="best" departSpeed="max" from="-30471057#0" id="rs_c000_i000_1122" to="6927279"/>
 <trip depart="98.0" departLane="best" departSpeed="max" from="-212694593#3" id="rs_c000_i002_19" to="-212694593#2"/>
 <trip depart="98.0" departLane="best" departSpeed="max" from="-5234464" id="rs_c000_i000_1131" to="-30141086#0"/>
 <trip depart="100.0" departLane="best" departSpeed="max" from="84017451#0" id="rs_c000_i000_1143" to="-84016143"/>
 <trip depart="100.0" departLane="best" departSpeed="max" from="-10426031#1" id="rs_c000_i001_146" to="51340803#1"/>
 <trip depart="101.0" departLane="best" departSpeed="max" from="137996244#0" id="rs_c000_i000_1157" to="-122529114#1"/>
 <trip depart="103.0" departLane="best" departSpeed="max" from="-122529100" id="rs_c000_i000_1177" to="24423403#5"/>
 <trip depart="103.0" departLane="best" departSpeed="max" from="358697049#0" id="rs_c000_i000_1186" to="358697049#1"/>
 <trip depart="103.0" departLane="best" departSpeed="max" from="-4361529#0" id="rs_c001_i002_4" to="26165754#1"/>
 <trip depart="105.0" departLane="best" departSpeed="max" from="-301127377" id="rs_c000_i000_1200" to="-159761036#1"/>
 <trip depart="106.0" departLane="best" departSpeed="max" from="-94087966" id="rs_c000_i001_157" to="-30471451"/>
 <trip depart="107.0" departLane="best" departSpeed="max" from="-34777320" id="rs_c000_i000_1213" to="-24399325#0"/>
 <trip depart="107.0" departLane="best" departSpeed="max" from="39644113#0" id="rs_c000_i000_1214" to="30290973"/>
 <trip depart="107.0" departLane="best" departSpeed="max" from="-4485423" id="rs_c000_i000_1216" to="-71233702"/>
 <trip depart="107.0" departLane="best" departSpeed="max" from="-333144425" id="rs_c000_i002_23" to="-333144397"/>
 <trip depart="107.0" departLane="best" departSpeed="max" from="83163097#1" id="rs_c001_i000_228" to="-313656937"/>
 <trip depart="109.0" departLane="best" departSpeed="max" from="26367998#1" id="rs_c000_i000_1227" to="10557655"/>
 <trip depart="109.0" departLane="best" departSpeed="max" from="6935285#0" id="rs_c000_i000_1228" to="145737637#1"/>
 <trip depart="111.0" departLane="best" departSpeed="max" from="503180223#1" id="rs_c000_i002_25" to="-137996252"/>
 <trip depart="112.0" departLane="best" departSpeed="max" from="4952735#0" id="rs_c000_i000_1268" to="327225378"/>
 <trip depart="114.0" departLane="best" departSpeed="max" from="-38807023" id="rs_c000_i000_1298" to="-210457775#1"/>
 <trip depart="115.0" departLane="best" departSpeed="max" from="61979389#1" id="rs_c000_i000_1307" to="192223720#1"/>
 <trip depart="117.0" departLane="best" departSpeed="max" from="24423403#2" id="rs_c001_i000_241" to="24423403#3"/>
 <trip depart="118.0" departLane="best" departSpeed="max" from="-87397780" id="rs_c000_i000_1330" to="4250372"/>
 <trip depart="118.0" departLane="best" departSpeed="max" from="-62513944#0" id="rs_c000_i000_1339" to="61102971#1"/>
 <trip depart="119.0" departLane="best" departSpeed="max" from="846117750" id="rs_c000_i001_179" to="846117751"/>
 <trip depart="121.0" departLane="best" departSpeed="max" from="-95937723" id="rs_c000_i000_122" to="-95937728#3"/>
 <trip depart="121.0" departLane="best" departSpeed="max" from="890973612" id="rs_c000_i000_1366" to="126449309"/>
 <trip depart="121.0" departLane="best" departSpeed="max" from="5091199" id="rs_c001_i000_246" to="62059875#1"/>
 <trip depart="122.0" departLane="best" departSpeed="max" from="42793238#0" id="rs_c000_i000_1376" to="-98158886#0"/>
 <trip depart="124.0" departLane="best" departSpeed="max" from="310738357" id="rs_c001_i000_253" to="96596615#1"/>
 <trip depart="125.0" departLane="best" departSpeed="max" from="5095190#0" id="rs_c000_i000_1423" to="-233171094#0"/>
 <trip depart="125.0" departLane="best" departSpeed="max" from="96559143" id="rs_c001_i000_256" to="4229476"/>
 <trip depart="126.0" departLane="best" departSpeed="max" from="-607687261#0" id="rs_c000_i000_1434" to="-140536663"/>
 <trip depart="130.0" departLane="best" departSpeed="max" from="-9604697" id="rs_c000_i000_1478" to="-8394848"/>
 <trip depart="131.0" departLane="best" departSpeed="max" from="-61371680#0" id="rs_c000_i000_1484" to="8102541"/>
 <trip depart="131.0" departLane="best" departSpeed="max" from="4353778#0" id="rs_c000_i000_1487" to="-57726375#2"/>
 <trip depart="134.0" departLane="best" departSpeed="max" from="-117099153" id="rs_c000_i000_1508" to="26040355#2"/>
 <trip depart="136.0" departLane="best" departSpeed="max" from="-76180072" id="rs_c000_i000_1535_part0" to="-76180070"/>
 <trip depart="136.0" departLane="best" departSpeed="max" from="10559201" id="rs_c000_i001_200" to="-84639212"/>
 <trip depart="136.0" departLane="best" departSpeed="max" from="5205187" id="rs_c001_i000_277" to="-205258664#0"/>
 <trip depart="137.0" departLane="best" departSpeed="max" from="10516236" id="rs_c000_i002_32" to="333156355"/>
 <trip depart="143.0" departLane="best" departSpeed="max" from="-14994763" id="rs_c000_i000_1620" to="132817971"/>
 <trip depart="143.0" departLane="best" departSpeed="max" from="4492786" id="rs_c000_i000_1621" to="34178666"/>
 <trip depart="144.0" departLane="best" departSpeed="max" from="-6927021" id="rs_c001_i000_291" to="-6926949#0"/>
 <trip depart="145.0" departLane="best" departSpeed="max" from="889565311#1" id="rs_c000_i000_1639" to="83173307#1"/>
 <trip depart="146.0" departLane="best" departSpeed="max" from="-117625588" id="rs_c000_i000_1656" to="28867808#0"/>
 <trip depart="150.0" departLane="best" departSpeed="max" from="-217696289" id="rs_c000_i000_1702" to="245623696#3"/>
 <trip depart="152.0" departLane="best" departSpeed="max" from="94124202" id="rs_c001_i000_172" to="96559143"/>
 <trip depart="154.0" departLane="best" departSpeed="max" from="83701518#0" id="rs_c000_i000_1742" to="83701518#1"/>
 <trip depart="156.0" departLane="best" departSpeed="max" from="-78312368" id="rs_c001_i000_320" to="-328813517"/>
 <trip depart="157.0" departLane="best" departSpeed="max" from="-95937723" id="rs_c000_i000_460" to="-95937728#3"/>
 <trip depart="162.0" departLane="best" departSpeed="max" from="46606595" id="rs_c000_i000_1823" to="46606603"/>
 <trip depart="164.0" departLane="best" departSpeed="max" from="-118869284#1" id="rs_c000_i000_1842" to="118869284#1"/>
 <trip depart="164.58" departLane="best" departSpeed="max" from="96718348#0" id="rs_c000_i000_247_part1" to="96718347"/>
 <trip depart="165.0" departLane="best" departSpeed="max" from="-234540368" id="rs_c000_i000_1853" to="234540367"/>
 <trip depart="165.0" departLane="best" departSpeed="max" from="-14433921#1" id="rs_c000_i000_1859" to="206172956"/>
 <trip depart="167.0" departLane="best" departSpeed="max" from="-5234280#0" id="rs_c000_i000_1879" to="-5234278#1"/>
 <trip depart="167.0" departLane="best" departSpeed="max" from="-61367449#0" id="rs_c001_i001_41" to="8102548"/>
 <trip depart="168.0" departLane="best" departSpeed="max" from="100018570#1" id="rs_c001_i000_336" to="203752765"/>
 <trip depart="169.0" departLane="best" departSpeed="max" from="-23119642" id="rs_c000_i000_1898" to="74310614"/>
 <trip depart="170.0" departLane="best" departSpeed="max" from="-367006381" id="rs_c000_i000_1903_part0" to="-210993752#2"/>
 <trip depart="170.0" departLane="best" departSpeed="max" from="136721678" id="rs_c000_i000_1908" to="58507979#0"/>
 <trip depart="171.0" departLane="best" departSpeed="max" from="462046218" id="rs_c001_i000_340" to="-30141086#0"/>
 <trip depart="172.0" departLane="best" departSpeed="max" from="-24423403#10" id="rs_c000_i001_252" to="-125351162#0"/>
 <trip depart="172.0" departLane="best" departSpeed="max" from="5095197#1" id="rs_c000_i001_264" to="-62057884#0"/>
 <trip depart="174.0" departLane="best" departSpeed="max" from="-32016029#2" id="rs_c000_i000_1949" to="32461045#1"/>
 <trip depart="175.0" departLane="best" departSpeed="max" from="-95937723" id="rs_c000_i000_698" to="-95937728#3"/>
 <trip depart="176.0" departLane="best" departSpeed="max" from="-366308474" id="rs_c000_i000_1964" to="10558007#0"/>
 <trip depart="176.0" departLane="best" departSpeed="max" from="8102482" id="rs_c000_i000_1965" to="-81646465#1"/>
 <trip depart="177.0" departLane="best" departSpeed="max" from="6935285#0" id="rs_c000_i000_1968" to="145737637#1"/>
 <trip depart="177.0" departLane="best" departSpeed="max" from="51856551#0" id="rs_c001_i000_348" to="1006265805#3"/>
 <trip depart="178.0" departLane="best" departSpeed="max" from="-77806130" id="rs_c000_i000_1989" to="-71233702"/>
 <trip depart="181.0" departLane="best" departSpeed="max" from="118869284#0" id="rs_c000_i000_2018" to="118869284#1"/>
 <trip depart="182.0" departLane="best" departSpeed="max" from="-10426011#1" id="rs_c000_i001_276" to="10425893#1"/>
 <trip depart="187.0" departLane="best" departSpeed="max" from="-95937723" id="rs_c000_i000_1137" to="-95937728#3"/>
 <trip depart="187.0" departLane="best" departSpeed="max" from="14571550#1" id="rs_c000_i002_46" to="15242125"/>
 <trip depart="191.0" departLane="best" departSpeed="max" from="-95937723" id="rs_c000_i000_424" to="-95937728#3"/>
 <trip depart="194.0" departLane="best" departSpeed="max" from="145737637#0" id="rs_c001_i000_373_part0" to="145737637#1"/>
 <trip depart="198.0" departLane="best" departSpeed="max" from="321098632#1" id="rs_c000_i000_2183" to="126140573#0"/>
 <trip depart="198.0" departLane="best" departSpeed="max" from="-5137917" id="rs_c000_i001_296" to="-75612390#0"/>
 <trip depart="200.0" departLane="best" departSpeed="max" from="-95937723" id="rs_c000_i000_1362" to="-95937728#3"/>
 <trip depart="200.0" departLane="best" departSpeed="max" from="-136721672" id="rs_c000_i000_2199" to="-852319713#0"/>
 <trip depart="200.0" departLane="best" departSpeed="max" from="24284901#0" id="rs_c000_i000_2206" to="236083705"/>
 <trip depart="202.0" departLane="best" departSpeed="max" from="-140497659#1" id="rs_c000_i000_2227" to="-140497659#0"/>
 <trip depart="204.0" departLane="best" departSpeed="max" from="-29689095" id="rs_c000_i000_2258" to="-350148486"/>
 <trip depart="207.0" departLane="best" departSpeed="max" from="-61645644" id="rs_c000_i000_2288" to="-370016267"/>
 <trip depart="209.0" departLane="best" departSpeed="max" from="-765843955" id="rs_c000_i000_2309" to="26959968#1"/>
 <trip depart="210.0" departLane="best" departSpeed="max" from="-9604697" id="rs_c000_i000_2321" to="-8394848"/>
 <trip depart="212.0" departLane="best" departSpeed="max" from="-136864084#1" id="rs_c001_i000_412" to="-136864084#0"/>
 <trip depart="212.0" departLane="best" departSpeed="max" from="4229476" id="rs_c000_i000_2345" to="96202733"/>
 <trip depart="212.0" departLane="best" departSpeed="max" from="-126905635" id="rs_c000_i000_2347" to="-126905630"/>
 <trip depart="213.0" departLane="best" departSpeed="max" from="-42792917#0" id="rs_c000_i000_2348" to="117656063#0"/>
 <trip depart="213.0" departLane="best" departSpeed="max" from="300981184#1" id="rs_c000_i000_2358" to="-4361529#0"/>
 <trip depart="214.0" departLane="best" departSpeed="max" from="-369150317#0" id="rs_c000_i000_2371" to="-132047178"/>
 <trip depart="216.0" departLane="best" departSpeed="max" from="-95952109" id="rs_c001_i000_422" to="331377546"/>
 <trip depart="216.0" departLane="best" departSpeed="max" from="-20045694#0" id="rs_c000_i000_2386" to="-62162661"/>
 <trip depart="217.0" departLane="best" departSpeed="max" from="10558745" id="rs_c000_i000_2397" to="39128352"/>
 <trip depart="218.0" departLane="best" departSpeed="max" from="183247520" id="rs_c001_i001_54" to="183247521#1"/>
 <trip depart="218.0" departLane="best" departSpeed="max" from="4680630" id="rs_c000_i000_2403" to="-83508584"/>
 <trip depart="221.0" departLane="best" departSpeed="max" from="313535515" id="rs_c001_i000_431" to="-313535510"/>
 <trip depart="222.0" departLane="best" departSpeed="max" from="4238091#1" id="rs_c001_i000_378" to="4952735#0"/>
 <trip depart="222.0" departLane="best" departSpeed="max" from="-980528933#1" id="rs_c001_i000_435" to="-980528933#0"/>
 <trip depart="223.0" departLane="best" departSpeed="max" from="125683988" id="rs_c001_i000_441" to="-125684096"/>
 <trip depart="231.0" departLane="best" departSpeed="max" from="-24031434#0" id="rs_c000_i000_1849" to="-333144397"/>
 <trip depart="232.0" departLane="best" departSpeed="max" from="-233171094#0" id="rs_c000_i000_2547" to="-5095173"/>
 <trip depart="234.0" departLane="best" departSpeed="max" from="-306713165" id="rs_c000_i000_2568" to="301503276"/>
 <trip depart="235.0" departLane="best" departSpeed="max" from="-4485415" id="rs_c001_i000_457" to="78535798#2"/>
 <trip depart="235.0" departLane="best" departSpeed="max" from="-10516147#2" id="rs_c000_i000_2583" to="-10516147#1"/>
 <trip depart="236.0" departLane="best" departSpeed="max" from="-95937723" id="rs_c000_i000_1018" to="-95937728#3"/>
 <trip depart="238.0" departLane="best" departSpeed="max" from="-27404368#1" id="rs_c001_i000_464" to="-27404368#0"/>
 <trip depart="239.0" departLane="best" departSpeed="max" from="117589020" id="rs_c000_i000_2625" to="24423625#1"/>
 <trip depart="241.0" departLane="best" departSpeed="max" from="-20179292#0" id="rs_c000_i000_2655" to="-211129670#0"/>
 <trip depart="241.26" departLane="best" departSpeed="max" from="133113957#0" id="rs_c000_i001_75" to="133113956"/>
 <trip depart="242.0" departLane="best" departSpeed="max" from="8064520" id="rs_c000_i000_2658" to="83633194"/>
 <trip depart="243.0" departLane="best" departSpeed="max" from="35067049" id="rs_c001_i000_474" to="25618827"/>
 <trip depart="244.0" departLane="best" departSpeed="max" from="-45873417#0" id="rs_c000_i001_362" to="83701518#1"/>
 <trip depart="244.0" departLane="best" departSpeed="max" from="-122529102#3" id="rs_c000_i001_364" to="122529094#1"/>
 <trip depart="246.0" departLane="best" departSpeed="max" from="24423403#2" id="rs_c000_i000_2701" to="24423403#3"/>
 <trip depart="248.0" departLane="best" departSpeed="max" from="-10516236" id="rs_c000_i000_2728" to="-10516147#0"/>
 <trip depart="249.0" departLane="best" departSpeed="max" from="-117625588" id="rs_c000_i000_2736" to="28867808#0"/>
 <trip depart="252.0" departLane="best" departSpeed="max" from="84017451#1" id="rs_c001_i000_489" to="26368315"/>
 <trip depart="253.0" departLane="best" departSpeed="max" from="-10363546" id="rs_c000_i000_2789_part0" to="125689487#2"/>
 <trip depart="254.0" departLane="best" departSpeed="max" from="-61565968" id="rs_c001_i001_64" to="-61543316#1"/>
 <trip depart="256.0" departLane="best" departSpeed="max" from="61669586" id="rs_c001_i000_496" to="-333156359#1"/>
 <trip depart="258.0" departLane="best" departSpeed="max" from="24976239" id="rs_c000_i001_383" to="117631284"/>
 <trip depart="259.0" departLane="best" departSpeed="max" from="-212694590" id="rs_c000_i000_2852" to="-26127182#2"/>
 <trip depart="260.0" departLane="best" departSpeed="max" from="-15242129#0" id="rs_c000_i001_391" to="-330415869"/>
 <trip depart="261.0" departLane="best" departSpeed="max" from="125351110" id="rs_c000_i000_2871" to="-122529096#3"/>
 <trip depart="262.0" departLane="best" departSpeed="max" from="-136721679#0" id="rs_c000_i000_2889" to="290255303#1"/>
 <trip depart="262.0" departLane="best" departSpeed="max" from="-63134322#1" id="rs_c000_i001_400" to="-51722317"/>
 <trip depart="267.0" departLane="best" departSpeed="max" from="-211129670#0" id="rs_c001_i000_506" to="-4232328"/>
 <trip depart="267.0" departLane="best" departSpeed="max" from="166533654#1" id="rs_c000_i000_2936" to="30529010#1"/>
 <trip depart="267.0" departLane="best" departSpeed="max" from="-290255303#2" id="rs_c000_i000_2943" to="-26165752#0"/>
 <trip depart="268.0" departLane="best" departSpeed="max" from="-301127378" id="rs_c000_i000_2948" to="234956680"/>
 <trip depart="268.0" departLane="best" departSpeed="max" from="-237367748#2" id="rs_c000_i000_2958" to="-237367748#1"/>
 <trip depart="268.0" departLane="best" departSpeed="max" from="-79541051" id="rs_c000_i000_2959" to="-5137866"/>
 <trip depart="268.51" departLane="best" departSpeed="max" from="133113957#0" id="rs_c001_i000_220" to="133113956"/>
 <trip depart="274.54" departLane="best" departSpeed="max" from="96718348#0" id="rs_c001_i000_11" to="96718347"/>
 <trip depart="275.0" departLane="best" departSpeed="max" from="807837521#2" id="rs_c000_i001_353" to="582286858#1"/>
 <trip depart="278.0" departLane="best" departSpeed="max" from="-71952012" id="rs_c000_i000_3066" to="-205258664#0"/>
 <trip depart="279.0" departLane="best" departSpeed="max" from="-233220919" id="rs_c000_i000_3097" to="-117643622"/>
 <trip depart="279.0" departLane="best" departSpeed="max" from="-16345605#0" id="rs_c000_i001_424_part0" to="-16345612#0"/>
 <trip depart="281.0" departLane="best" departSpeed="max" from="-286404309" id="rs_c000_i001_426" to="-138037519"/>
 <trip depart="282.04" departLane="best" departSpeed="max" from="133113957#0" id="rs_c000_i000_1882" to="133113956"/>
 <trip depart="283.0" departLane="best" departSpeed="max" from="4952788" id="rs_c000_i001_431" to="332195301"/>
 <trip depart="284.0" departLane="best" departSpeed="max" from="94124202" id="rs_c000_i000_2253_part0" to="96559143"/>
 <trip depart="284.0" departLane="best" departSpeed="max" from="4238091#1" id="rs_c000_i000_2487" to="4952735#0"/>
 <trip depart="284.0" departLane="best" departSpeed="max" from="-100074572#0" id="rs_c001_i000_540" to="-29689096#0"/>
 <trip depart="284.47" departLane="best" departSpeed="max" from="30714753#0" id="rs_c000_i000_684" to="246109631"/>
 <trip depart="285.0" departLane="best" departSpeed="max" from="-301127378" id="rs_c000_i001_435" to="159761032#0"/>
 <trip depart="286.0" departLane="best" departSpeed="max" from="-32016029#3" id="rs_c001_i001_76" to="-32016029#2"/>
 <trip depart="288.0" departLane="best" departSpeed="max" from="-125351162#0" id="rs_c000_i000_3195" to="-212694593#0"/>
 <trip depart="290.0" departLane="best" departSpeed="max" from="-14434303" id="rs_c001_i000_551" to="14571551"/>
 <trip depart="292.0" departLane="best" departSpeed="max" from="4238091#1" id="rs_c000_i002_59" to="4952735#0"/>
 <trip depart="293.0" departLane="best" departSpeed="max" from="-224710093#0" id="rs_c000_i000_3232" to="-211129670#0"/>
 <trip depart="293.0" departLane="best" departSpeed="max" from="237386917#0" id="rs_c000_i000_3233" to="95916457"/>
 <trip depart="293.0" departLane="best" departSpeed="max" from="-78343357" id="rs_c000_i000_3235_part0" to="78049389"/>
 <trip depart="294.0" departLane="best" departSpeed="max" from="-10436546" id="rs_c000_i000_3237_part0" to="51340266#1"/>
 <trip depart="295.0" departLane="best" departSpeed="max" from="4643592" id="rs_c000_i000_3244" to="-4643592"/>
 <trip depart="295.67" departLane="best" departSpeed="max" from="286138967" id="rs_c000_i000_985" to="286138965"/>
 <trip depart="296.0" departLane="best" departSpeed="max" from="286243202" id="rs_c000_i000_3259" to="23960467#0"/>
 <trip depart="297.0" departLane="best" departSpeed="max" from="84656707#1" id="rs_c000_i000_3268" to="84639228#1"/>
 <trip depart="298.0" departLane="best" departSpeed="max" from="94124202" id="rs_c000_i000_2648" to="96559143"/>
 <trip depart="298.0" departLane="best" departSpeed="max" from="-237367748#2" id="rs_c000_i000_3288" to="-237367748#1"/>
 <trip depart="298.46" departLane="best" departSpeed="max" from="30692829" id="rs_c001_i000_117" to="73028104"/>
 <trip depart="300.0" departLane="best" departSpeed="max" from="-193684941" id="rs_c000_i000_3297" to="-193684946#0"/>
 <trip depart="301.0" departLane="best" departSpeed="max" from="94124202" id="rs_c000_i000_3256" to="96559143"/>
 <trip depart="301.32" departLane="best" departSpeed="max" from="30714753#0" id="rs_c000_i000_104" to="246109631"/>
 <trip depart="302.0" departLane="best" departSpeed="max" from="-10405223#0" id="rs_c001_i000_575" to="25894166#2"/>
 <trip depart="302.0" departLane="best" departSpeed="max" from="-75565714" id="rs_c001_i000_578" to="-61495637"/>
 <trip depart="305.24" departLane="best" departSpeed="max" from="96718348#0" id="rs_c000_i000_959" to="96718347"/>
 <trip depart="309.0" departLane="best" departSpeed="max" from="-314422898#0" id="rs_c000_i000_3396" to="286175728"/>
 <trip depart="309.68" departLane="best" departSpeed="max" from="30714753#0" id="rs_c001_i000_202" to="246109631"/>
 <trip depart="311.0" departLane="best" departSpeed="max" from="-79885356#0" id="rs_c000_i000_3423" to="-235378181"/>
 <trip depart="311.0" departLane="best" departSpeed="max" from="-122529096#6" id="rs_c000_i000_3427" to="-122529096#5"/>
 <trip depart="316.0" departLane="best" departSpeed="max" from="-10425852" id="rs_c001_i000_602" to="-14573382#2"/>
 <trip depart="316.0" departLane="best" departSpeed="max" from="125689487#2" id="rs_c001_i000_603" to="125689487#3"/>
 <trip depart="316.71" departLane="best" departSpeed="max" from="29689100#0" id="rs_c000_i000_709" to="58097865"/>
 <trip depart="318.0" departLane="best" departSpeed="max" from="84656707#1" id="rs_c000_i000_3508" to="84639228#1"/>
 <trip depart="321.0" departLane="best" departSpeed="max" from="87348360" id="rs_c001_i000_608" to="151911876"/>