<?xml version="1.0" encoding="UTF-8"?>
<!-- generated on 2023-12-04 16:00:34.383502 by generateParkingAreas.py v1_13_0+0000-4b5bca80615
<configuration>
    <net-file value="C:\Users\bochenin\RL project\materials\ridesharing\toy example\MySUMOfile.net.xml"/>
    <output-file value="C:\Users\bochenin\RL project\materials\ridesharing\toy example\MySUMOparkingareas.add.xml"/>
</configuration>

-->
<additional xmlns:xsi="http://www.w3.org/2001/XMLSchema-instance" xsi:noNamespaceSchemaLocation="http://sumo.dlr.de/xsd/additional_file.xsd">
    <parkingArea id="pa-1000" lane="-1000_0" roadsideCapacity="13" length="5"/>
    <parkingArea id="pa-1002" lane="-1002_0" roadsideCapacity="30" length="5"/>
    <parkingArea id="pa-10035" lane="-10035_0" roadsideCapacity="20" length="5"/>
    <parkingArea id="pa-10036" lane="-10036_0" roadsideCapacity="34" length="5"/>
    <parkingArea id="pa-10037" lane="-10037_0" roadsideCapacity="30" length="5"/>
    <parkingArea id="pa-10039" lane="-10039_0" roadsideCapacity="14" length="5"/>
    <parkingArea id="pa-1004" lane="-1004_0" roadsideCapacity="13" length="5"/>
    <parkingArea id="pa-10041" lane="-10041_0" roadsideCapacity="19" length="5"/>
    <parkingArea id="pa-10064" lane="-10064_0" roadsideCapacity="29" length="5"/>
    <parkingArea id="pa-10078" lane="-10078_0" roadsideCapacity="30" length="5"/>
    <parkingArea id="pa-10190" lane="-10190_0" roadsideCapacity="19" length="5"/>
    <parkingArea id="pa-10191" lane="-10191_0" roadsideCapacity="34" length="5"/>
    <parkingArea id="pa-10193" lane="-10193_0" roadsideCapacity="13" length="5"/>
    <parkingArea id="pa-10201" lane="-10201_0" roadsideCapacity="14" length="5"/>
    <parkingArea id="pa-1025" lane="-1025_0" roadsideCapacity="14" length="5"/>
    <parkingArea id="pa-1026" lane="-1026_0" roadsideCapacity="19" length="5"/>
    <parkingArea id="pa-10279" lane="-10279_0" roadsideCapacity="29" length="5"/>
    <parkingArea id="pa-10285" lane="-10285_0" roadsideCapacity="30" length="5"/>
    <parkingArea id="pa-10289" lane="-10289_0" roadsideCapacity="14" length="5"/>
    <parkingArea id="pa-10294" lane="-10294_0" roadsideCapacity="36" length="5"/>
    <parkingArea id="pa-10302" lane="-10302_0" roadsideCapacity="13" length="5"/>
    <parkingArea id="pa-10305" lane="-10305_0" roadsideCapacity="14" length="5"/>
    <parkingArea id="pa-10307" lane="-10307_0" roadsideCapacity="30" length="5"/>
    <parkingArea id="pa-10308" lane="-10308_0" roadsideCapacity="14" length="5"/>
    <parkingArea id="pa-10323" lane="-10323_0" roadsideCapacity="30" length="5"/>
    <parkingArea id="pa-1034" lane="-1034_0" roadsideCapacity="14" length="5"/>
    <parkingArea id="pa-10431" lane="-10431_0" roadsideCapacity="19" length="5"/>
    <parkingArea id="pa-10433" lane="-10433_0" roadsideCapacity="14" length="5"/>
    <parkingArea id="pa-10487" lane="-10487_0" roadsideCapacity="29" length="5"/>
    <parkingArea id="pa-10494" lane="-10494_0" roadsideCapacity="13" length="5"/>
    <parkingArea id="pa-10517" lane="-10517_0" roadsideCapacity="15" length="5"/>
    <parkingArea id="pa-10632" lane="-10632_0" roadsideCapacity="30" length="5"/>
    <parkingArea id="pa-10646" lane="-10646_0" roadsideCapacity="30" length="5"/>
    <parkingArea id="pa-10668" lane="-10668_0" roadsideCapacity="29" length="5"/>
    <parkingArea id="pa-10670" lane="-10670_0" roadsideCapacity="20" length="5"/>
    <parkingArea id="pa-10673" lane="-10673_0" roadsideCapacity="20" length="5"/>
    <parkingArea id="pa-10675" lane="-10675_0" roadsideCapacity="31" length="5"/>
    <parkingArea id="pa-10681" lane="-10681_0" roadsideCapacity="15" length="5"/>
    <parkingArea id="pa-10685" lane="-10685_0" roadsideCapacity="14" length="5"/>
    <parkingArea id="pa-10696" lane="-10696_0" roadsideCapacity="34" length="5"/>
    <parkingArea id="pa-10697" lane="-10697_0" roadsideCapacity="20" length="5"/>
    <parkingArea id="pa-10802" lane="-10802_0" roadsideCapacity="36" length="5"/>
    <parkingArea id="pa-10811" lane="-10811_0" roadsideCapacity="13" length="5"/>
    <parkingArea id="pa-10813" lane="-10813_0" roadsideCapacity="30" length="5"/>
    <parkingArea id="pa-10820" lane="-10820_0" roadsideCapacity="15" length="5"/>
    <parkingArea id="pa-109" lane="-109_0" roadsideCapacity="14" length="5"/>
    <parkingArea id="pa-10949" lane="-10949_0" roadsideCapacity="16" length="5"/>
    <parkingArea id="pa-11" lane="-11_0" roadsideCapacity="14" length="5"/>
    <parkingArea id="pa-11060" lane="-11060_0" roadsideCapacity="34" length="5"/>
    <parkingArea id="pa-11112" lane="-11112_0" roadsideCapacity="30" length="5"/>
    <parkingArea id="pa-11113" lane="-11113_0" roadsideCapacity="34" length="5"/>
    <parkingArea id="pa-11118" lane="-11118_0" roadsideCapacity="30" length="5"/>
    <parkingArea id="pa-11134" lane="-11134_0" roadsideCapacity="30" length="5"/>
    <parkingArea id="pa-11139" lane="-11139_0" roadsideCapacity="30" length="5"/>
    <parkingArea id="pa-11145" lane="-11145_0" roadsideCapacity="13" length="5"/>
    <parkingArea id="pa-11259" lane="-11259_0" roadsideCapacity="13" length="5"/>
    <parkingArea id="pa-11261" lane="-11261_0" roadsideCapacity="13" length="5"/>
    <parkingArea id="pa-11276" lane="-11276_0" roadsideCapacity="19" length="5"/>
    <parkingArea id="pa-11280" lane="-11280_0" roadsideCapacity="14" length="5"/>
    <parkingArea id="pa-11295" lane="-11295_0" roadsideCapacity="30" length="5"/>
    <parkingArea id="pa-11317" lane="-11317_0" roadsideCapacity="13" length="5"/>
    <parkingArea id="pa-11319" lane="-11319_0" roadsideCapacity="30" length="5"/>
    <parkingArea id="pa-11434" lane="-11434_0" roadsideCapacity="34" length="5"/>
    <parkingArea id="pa-11441" lane="-11441_0" roadsideCapacity="14" length="5"/>
    <parkingArea id="pa-11445" lane="-11445_0" roadsideCapacity="14" length="5"/>
    <parkingArea id="pa-11447" lane="-11447_0" roadsideCapacity="20" length="5"/>
    <parkingArea id="pa-11449" lane="-11449_0" roadsideCapacity="30" length="5"/>
    <parkingArea id="pa-11456" lane="-11456_0" roadsideCapacity="30" length="5"/>
    <parkingArea id="pa-11468" lane="-11468_0" roadsideCapacity="14" length="5"/>
    <parkingArea id="pa-11469" lane="-11469_0" roadsideCapacity="34" length="5"/>
    <parkingArea id="pa-1148" lane="-1148_0" roadsideCapacity="30" length="5"/>
    <parkingArea id="pa-11481" lane="-11481_0" roadsideCapacity="30" length="5"/>
    <parkingArea id="pa-1150" lane="-1150_0" roadsideCapacity="30" length="5"/>
    <parkingArea id="pa-11505" lane="-11505_0" roadsideCapacity="30" length="5"/>
    <parkingArea id="pa-11520" lane="-11520_0" roadsideCapacity="16" length="5"/>
    <parkingArea id="pa-1154" lane="-1154_0" roadsideCapacity="13" length="5"/>
    <parkingArea id="pa-11626" lane="-11626_0" roadsideCapacity="19" length="5"/>
    <parkingArea id="pa-11628" lane="-11628_0" roadsideCapacity="31" length="5"/>
    <parkingArea id="pa-11652" lane="-11652_0" roadsideCapacity="31" length="5"/>
    <parkingArea id="pa-11653" lane="-11653_0" roadsideCapacity="35" length="5"/>
    <parkingArea id="pa-1168" lane="-1168_0" roadsideCapacity="13" length="5"/>
    <parkingArea id="pa-11779" lane="-11779_0" roadsideCapacity="13" length="5"/>
    <parkingArea id="pa-1178" lane="-1178_0" roadsideCapacity="13" length="5"/>
    <parkingArea id="pa-11781" lane="-11781_0" roadsideCapacity="13" length="5"/>
    <parkingArea id="pa-11782" lane="-11782_0" roadsideCapacity="19" length="5"/>
    <parkingArea id="pa-11792" lane="-11792_0" roadsideCapacity="29" length="5"/>
    <parkingArea id="pa-11796" lane="-11796_0" roadsideCapacity="14" length="5"/>
    <parkingArea id="pa-1186" lane="-1186_0" roadsideCapacity="30" length="5"/>
    <parkingArea id="pa-11910" lane="-11910_0" roadsideCapacity="14" length="5"/>
    <parkingArea id="pa-11919" lane="-11919_0" roadsideCapacity="30" length="5"/>
    <parkingArea id="pa-1194" lane="-1194_0" roadsideCapacity="19" length="5"/>
    <parkingArea id="pa-11943" lane="-11943_0" roadsideCapacity="14" length="5"/>
    <parkingArea id="pa-11959" lane="-11959_0" roadsideCapacity="14" length="5"/>
    <parkingArea id="pa-120" lane="-120_0" roadsideCapacity="30" length="5"/>
    <parkingArea id="pa-1204" lane="-1204_0" roadsideCapacity="29" length="5"/>
    <parkingArea id="pa-1205" lane="-1205_0" roadsideCapacity="19" length="5"/>
    <parkingArea id="pa-12072" lane="-12072_0" roadsideCapacity="13" length="5"/>
    <parkingArea id="pa-12080" lane="-12080_0" roadsideCapacity="14" length="5"/>
    <parkingArea id="pa-1209" lane="-1209_0" roadsideCapacity="30" length="5"/>
    <parkingArea id="pa-12090" lane="-12090_0" roadsideCapacity="30" length="5"/>
    <parkingArea id="pa-12091" lane="-12091_0" roadsideCapacity="30" length="5"/>
    <parkingArea id="pa-12095" lane="-12095_0" roadsideCapacity="14" length="5"/>
    <parkingArea id="pa-12099" lane="-12099_0" roadsideCapacity="30" length="5"/>
    <parkingArea id="pa-1211" lane="-1211_0" roadsideCapacity="29" length="5"/>
    <parkingArea id="pa-1212" lane="-1212_0" roadsideCapacity="19" length="5"/>
    <parkingArea id="pa-12120" lane="-12120_0" roadsideCapacity="30" length="5"/>
    <parkingArea id="pa-12121" lane="-12121_0" roadsideCapacity="34" length="5"/>
    <parkingArea id="pa-12133" lane="-12133_0" roadsideCapacity="30" length="5"/>
    <parkingArea id="pa-12149" lane="-12149_0" roadsideCapacity="30" length="5"/>
    <parkingArea id="pa-12258" lane="-12258_0" roadsideCapacity="14" length="5"/>
    <parkingArea id="pa-12262" lane="-12262_0" roadsideCapacity="14" length="5"/>
    <parkingArea id="pa-12283" lane="-12283_0" roadsideCapacity="13" length="5"/>
    <parkingArea id="pa-12295" lane="-12295_0" roadsideCapacity="13" length="5"/>
    <parkingArea id="pa-12297" lane="-12297_0" roadsideCapacity="20" length="5"/>
    <parkingArea id="pa-123" lane="-123_0" roadsideCapacity="19" length="5"/>
    <parkingArea id="pa-12300" lane="-12300_0" roadsideCapacity="14" length="5"/>
    <parkingArea id="pa-12407" lane="-12407_0" roadsideCapacity="19" length="5"/>
    <parkingArea id="pa-12411" lane="-12411_0" roadsideCapacity="13" length="5"/>
    <parkingArea id="pa-12412" lane="-12412_0" roadsideCapacity="20" length="5"/>
    <parkingArea id="pa-1242" lane="-1242_0" roadsideCapacity="29" length="5"/>
    <parkingArea id="pa-12456" lane="-12456_0" roadsideCapacity="30" length="5"/>
    <parkingArea id="pa-12469" lane="-12469_0" roadsideCapacity="30" length="5"/>
    <parkingArea id="pa-12472" lane="-12472_0" roadsideCapacity="14" length="5"/>
    <parkingArea id="pa-12477" lane="-12477_0" roadsideCapacity="30" length="5"/>
    <parkingArea id="pa-12486" lane="-12486_0" roadsideCapacity="20" length="5"/>
    <parkingArea id="pa-1249" lane="-1249_0" roadsideCapacity="30" length="5"/>
    <parkingArea id="pa-12490" lane="-12490_0" roadsideCapacity="13" length="5"/>
    <parkingArea id="pa-12500" lane="-12500_0" roadsideCapacity="13" length="5"/>
    <parkingArea id="pa-12509" lane="-12509_0" roadsideCapacity="19" length="5"/>
    <parkingArea id="pa-12511" lane="-12511_0" roadsideCapacity="33" length="5"/>
    <parkingArea id="pa-12525" lane="-12525_0" roadsideCapacity="30" length="5"/>
    <parkingArea id="pa-12531" lane="-12531_0" roadsideCapacity="14" length="5"/>
    <parkingArea id="pa-1257" lane="-1257_0" roadsideCapacity="13" length="5"/>
    <parkingArea id="pa-12579" lane="-12579_0" roadsideCapacity="29" length="5"/>
    <parkingArea id="pa-12580" lane="-12580_0" roadsideCapacity="34" length="5"/>
    <parkingArea id="pa-12581" lane="-12581_0" roadsideCapacity="30" length="5"/>
    <parkingArea id="pa-1259" lane="-1259_0" roadsideCapacity="13" length="5"/>
    <parkingArea id="pa-12591" lane="-12591_0" roadsideCapacity="13" length="5"/>
    <parkingArea id="pa-12593" lane="-12593_0" roadsideCapacity="13" length="5"/>
    <parkingArea id="pa-12595" lane="-12595_0" roadsideCapacity="14" length="5"/>
    <parkingArea id="pa-12597" lane="-12597_0" roadsideCapacity="14" length="5"/>
    <parkingArea id="pa-12601" lane="-12601_0" roadsideCapacity="30" length="5"/>
    <parkingArea id="pa-12618" lane="-12618_0" roadsideCapacity="30" length="5"/>
    <parkingArea id="pa-12623" lane="-12623_0" roadsideCapacity="13" length="5"/>
    <parkingArea id="pa-12736" lane="-12736_0" roadsideCapacity="30" length="5"/>
    <parkingArea id="pa-12738" lane="-12738_0" roadsideCapacity="20" length="5"/>
    <parkingArea id="pa-12742" lane="-12742_0" roadsideCapacity="14" length="5"/>
    <parkingArea id="pa-12750" lane="-12750_0" roadsideCapacity="30" length="5"/>
    <parkingArea id="pa-12881" lane="-12881_0" roadsideCapacity="30" length="5"/>
    <parkingArea id="pa-12887" lane="-12887_0" roadsideCapacity="19" length="5"/>
    <parkingArea id="pa-12900" lane="-12900_0" roadsideCapacity="30" length="5"/>
    <parkingArea id="pa-12902" lane="-12902_0" roadsideCapacity="20" length="5"/>
    <parkingArea id="pa-12909" lane="-12909_0" roadsideCapacity="19" length="5"/>
    <parkingArea id="pa-12937" lane="-12937_0" roadsideCapacity="29" length="5"/>
    <parkingArea id="pa-12938" lane="-12938_0" roadsideCapacity="19" length="5"/>
    <parkingArea id="pa-12940" lane="-12940_0" roadsideCapacity="29" length="5"/>
    <parkingArea id="pa-12950" lane="-12950_0" roadsideCapacity="13" length="5"/>
    <parkingArea id="pa-12952" lane="-12952_0" roadsideCapacity="19" length="5"/>
    <parkingArea id="pa-12956" lane="-12956_0" roadsideCapacity="14" length="5"/>
    <parkingArea id="pa-12962" lane="-12962_0" roadsideCapacity="14" length="5"/>
    <parkingArea id="pa-12970" lane="-12970_0" roadsideCapacity="19" length="5"/>
    <parkingArea id="pa-12984" lane="-12984_0" roadsideCapacity="30" length="5"/>
    <parkingArea id="pa-12991" lane="-12991_0" roadsideCapacity="14" length="5"/>
    <parkingArea id="pa-13028" lane="-13028_0" roadsideCapacity="30" length="5"/>
    <parkingArea id="pa-13038" lane="-13038_0" roadsideCapacity="13" length="5"/>
    <parkingArea id="pa-13042" lane="-13042_0" roadsideCapacity="31" length="5"/>
    <parkingArea id="pa-13046" lane="-13046_0" roadsideCapacity="13" length="5"/>
    <parkingArea id="pa-13048" lane="-13048_0" roadsideCapacity="13" length="5"/>
    <parkingArea id="pa-13050" lane="-13050_0" roadsideCapacity="13" length="5"/>
    <parkingArea id="pa-13066" lane="-13066_0" roadsideCapacity="30" length="5"/>
    <parkingArea id="pa-131" lane="-131_0" roadsideCapacity="29" length="5"/>
    <parkingArea id="pa-13170" lane="-13170_0" roadsideCapacity="34" length="5"/>
    <parkingArea id="pa-13176" lane="-13176_0" roadsideCapacity="19" length="5"/>
    <parkingArea id="pa-13180" lane="-13180_0" roadsideCapacity="29" length="5"/>
    <parkingArea id="pa-13181" lane="-13181_0" roadsideCapacity="19" length="5"/>
    <parkingArea id="pa-13205" lane="-13205_0" roadsideCapacity="14" length="5"/>
    <parkingArea id="pa-13207" lane="-13207_0" roadsideCapacity="29" length="5"/>
    <parkingArea id="pa-13217" lane="-13217_0" roadsideCapacity="29" length="5"/>
    <parkingArea id="pa-13221" lane="-13221_0" roadsideCapacity="13" length="5"/>
    <parkingArea id="pa-13223" lane="-13223_0" roadsideCapacity="20" length="5"/>
    <parkingArea id="pa-13225" lane="-13225_0" roadsideCapacity="19" length="5"/>
    <parkingArea id="pa-13228" lane="-13228_0" roadsideCapacity="30" length="5"/>
    <parkingArea id="pa-13294" lane="-13294_0" roadsideCapacity="29" length="5"/>
    <parkingArea id="pa-13299" lane="-13299_0" roadsideCapacity="20" length="5"/>
    <parkingArea id="pa-13309" lane="-13309_0" roadsideCapacity="30" length="5"/>
    <parkingArea id="pa-13431" lane="-13431_0" roadsideCapacity="30" length="5"/>
    <parkingArea id="pa-13439" lane="-13439_0" roadsideCapacity="13" length="5"/>
    <parkingArea id="pa-13449" lane="-13449_0" roadsideCapacity="13" length="5"/>
    <parkingArea id="pa-13458" lane="-13458_0" roadsideCapacity="30" length="5"/>
    <parkingArea id="pa-13478" lane="-13478_0" roadsideCapacity="14" length="5"/>
    <parkingArea id="pa-13494" lane="-13494_0" roadsideCapacity="30" length="5"/>
    <parkingArea id="pa-13497" lane="-13497_0" roadsideCapacity="14" length="5"/>
    <parkingArea id="pa-13502" lane="-13502_0" roadsideCapacity="15" length="5"/>
    <parkingArea id="pa-13504" lane="-13504_0" roadsideCapacity="32" length="5"/>
    <parkingArea id="pa-13508" lane="-13508_0" roadsideCapacity="34" length="5"/>
    <parkingArea id="pa-13510" lane="-13510_0" roadsideCapacity="19" length="5"/>
    <parkingArea id="pa-13512" lane="-13512_0" roadsideCapacity="14" length="5"/>
    <parkingArea id="pa-13515" lane="-13515_0" roadsideCapacity="19" length="5"/>
    <parkingArea id="pa-13517" lane="-13517_0" roadsideCapacity="13" length="5"/>
    <parkingArea id="pa-13527" lane="-13527_0" roadsideCapacity="13" length="5"/>
    <parkingArea id="pa-13533" lane="-13533_0" roadsideCapacity="14" length="5"/>
    <parkingArea id="pa-13555" lane="-13555_0" roadsideCapacity="14" length="5"/>
    <parkingArea id="pa-13658" lane="-13658_0" roadsideCapacity="34" length="5"/>
    <parkingArea id="pa-13661" lane="-13661_0" roadsideCapacity="14" length="5"/>
    <parkingArea id="pa-13663" lane="-13663_0" roadsideCapacity="14" length="5"/>
    <parkingArea id="pa-13666" lane="-13666_0" roadsideCapacity="14" length="5"/>
    <parkingArea id="pa-13668" lane="-13668_0" roadsideCapacity="19" length="5"/>
    <parkingArea id="pa-13670" lane="-13670_0" roadsideCapacity="29" length="5"/>
    <parkingArea id="pa-13672" lane="-13672_0" roadsideCapacity="20" length="5"/>
    <parkingArea id="pa-13677" lane="-13677_0" roadsideCapacity="30" length="5"/>
    <parkingArea id="pa-13685" lane="-13685_0" roadsideCapacity="19" length="5"/>
    <parkingArea id="pa-13690" lane="-13690_0" roadsideCapacity="14" length="5"/>
    <parkingArea id="pa-13691" lane="-13691_0" roadsideCapacity="20" length="5"/>
    <parkingArea id="pa-13695" lane="-13695_0" roadsideCapacity="31" length="5"/>
    <parkingArea id="pa-13711" lane="-13711_0" roadsideCapacity="30" length="5"/>
    <parkingArea id="pa-13827" lane="-13827_0" roadsideCapacity="19" length="5"/>
    <parkingArea id="pa-13838" lane="-13838_0" roadsideCapacity="13" length="5"/>
    <parkingArea id="pa-13842" lane="-13842_0" roadsideCapacity="13" length="5"/>
    <parkingArea id="pa-13866" lane="-13866_0" roadsideCapacity="13" length="5"/>
    <parkingArea id="pa-13984" lane="-13984_0" roadsideCapacity="31" length="5"/>
    <parkingArea id="pa-13990" lane="-13990_0" roadsideCapacity="15" length="5"/>
    <parkingArea id="pa-14011" lane="-14011_0" roadsideCapacity="31" length="5"/>
    <parkingArea id="pa-14116" lane="-14116_0" roadsideCapacity="30" length="5"/>
    <parkingArea id="pa-14119" lane="-14119_0" roadsideCapacity="21" length="5"/>
    <parkingArea id="pa-14123" lane="-14123_0" roadsideCapacity="19" length="5"/>
    <parkingArea id="pa-14144" lane="-14144_0" roadsideCapacity="29" length="5"/>
    <parkingArea id="pa-14248" lane="-14248_0" roadsideCapacity="20" length="5"/>
    <parkingArea id="pa-14352" lane="-14352_0" roadsideCapacity="30" length="5"/>
    <parkingArea id="pa-14353" lane="-14353_0" roadsideCapacity="19" length="5"/>
    <parkingArea id="pa-14355" lane="-14355_0" roadsideCapacity="15" length="5"/>
    <parkingArea id="pa-14371" lane="-14371_0" roadsideCapacity="30" length="5"/>
    <parkingArea id="pa-144" lane="-144_0" roadsideCapacity="20" length="5"/>
    <parkingArea id="pa-14477" lane="-14477_0" roadsideCapacity="14" length="5"/>
    <parkingArea id="pa-14478" lane="-14478_0" roadsideCapacity="19" length="5"/>
    <parkingArea id="pa-14480" lane="-14480_0" roadsideCapacity="14" length="5"/>
    <parkingArea id="pa-14486" lane="-14486_0" roadsideCapacity="30" length="5"/>
    <parkingArea id="pa-14488" lane="-14488_0" roadsideCapacity="14" length="5"/>
    <parkingArea id="pa-14492" lane="-14492_0" roadsideCapacity="29" length="5"/>
    <parkingArea id="pa-14494" lane="-14494_0" roadsideCapacity="19" length="5"/>
    <parkingArea id="pa-14498" lane="-14498_0" roadsideCapacity="30" length="5"/>
    <parkingArea id="pa-14510" lane="-14510_0" roadsideCapacity="13" length="5"/>
    <parkingArea id="pa-14520" lane="-14520_0" roadsideCapacity="13" length="5"/>
    <parkingArea id="pa-14522" lane="-14522_0" roadsideCapacity="13" length="5"/>
    <parkingArea id="pa-14531" lane="-14531_0" roadsideCapacity="30" length="5"/>
    <parkingArea id="pa-14536" lane="-14536_0" roadsideCapacity="13" length="5"/>
    <parkingArea id="pa-14544" lane="-14544_0" roadsideCapacity="13" length="5"/>
    <parkingArea id="pa-14557" lane="-14557_0" roadsideCapacity="14" length="5"/>
    <parkingArea id="pa-14566" lane="-14566_0" roadsideCapacity="13" length="5"/>
    <parkingArea id="pa-14568" lane="-14568_0" roadsideCapacity="13" length="5"/>
    <parkingArea id="pa-1469" lane="-1469_0" roadsideCapacity="34" length="5"/>
    <parkingArea id="pa-14693" lane="-14693_0" roadsideCapacity="19" length="5"/>
    <parkingArea id="pa-14694" lane="-14694_0" roadsideCapacity="19" length="5"/>
    <parkingArea id="pa-1470" lane="-1470_0" roadsideCapacity="19" length="5"/>
    <parkingArea id="pa-14732" lane="-14732_0" roadsideCapacity="15" length="5"/>
    <parkingArea id="pa-1474" lane="-1474_0" roadsideCapacity="14" length="5"/>
    <parkingArea id="pa-148" lane="-148_0" roadsideCapacity="13" length="5"/>
    <parkingArea id="pa-14837" lane="-14837_0" roadsideCapacity="20" length="5"/>
    <parkingArea id="pa-14840" lane="-14840_0" roadsideCapacity="20" length="5"/>
    <parkingArea id="pa-14851" lane="-14851_0" roadsideCapacity="29" length="5"/>
    <parkingArea id="pa-14853" lane="-14853_0" roadsideCapacity="30" length="5"/>
    <parkingArea id="pa-1492" lane="-1492_0" roadsideCapacity="30" length="5"/>
    <parkingArea id="pa-14958" lane="-14958_0" roadsideCapacity="30" length="5"/>
    <parkingArea id="pa-14959" lane="-14959_0" roadsideCapacity="30" length="5"/>
    <parkingArea id="pa-14961" lane="-14961_0" roadsideCapacity="14" length="5"/>
    <parkingArea id="pa-15" lane="-15_0" roadsideCapacity="30" length="5"/>
    <parkingArea id="pa-15064" lane="-15064_0" roadsideCapacity="21" length="5"/>
    <parkingArea id="pa-15065" lane="-15065_0" roadsideCapacity="34" length="5"/>
    <parkingArea id="pa-15066" lane="-15066_0" roadsideCapacity="20" length="5"/>
    <parkingArea id="pa-15078" lane="-15078_0" roadsideCapacity="29" length="5"/>
    <parkingArea id="pa-15084" lane="-15084_0" roadsideCapacity="30" length="5"/>
    <parkingArea id="pa-15086" lane="-15086_0" roadsideCapacity="19" length="5"/>
    <parkingArea id="pa-15098" lane="-15098_0" roadsideCapacity="13" length="5"/>
    <parkingArea id="pa-15108" lane="-15108_0" roadsideCapacity="15" length="5"/>
    <parkingArea id="pa-15112" lane="-15112_0" roadsideCapacity="19" length="5"/>
    <parkingArea id="pa-15114" lane="-15114_0" roadsideCapacity="13" length="5"/>
    <parkingArea id="pa-15118" lane="-15118_0" roadsideCapacity="13" length="5"/>
    <parkingArea id="pa-15128" lane="-15128_0" roadsideCapacity="29" length="5"/>
    <parkingArea id="pa-15129" lane="-15129_0" roadsideCapacity="20" length="5"/>
    <parkingArea id="pa-15133" lane="-15133_0" roadsideCapacity="30" length="5"/>
    <parkingArea id="pa-15141" lane="-15141_0" roadsideCapacity="13" length="5"/>
    <parkingArea id="pa-15143" lane="-15143_0" roadsideCapacity="14" length="5"/>
    <parkingArea id="pa-15147" lane="-15147_0" roadsideCapacity="19" length="5"/>
    <parkingArea id="pa-15150" lane="-15150_0" roadsideCapacity="30" length="5"/>
    <parkingArea id="pa-15154" lane="-15154_0" roadsideCapacity="14" length="5"/>
    <parkingArea id="pa-15158" lane="-15158_0" roadsideCapacity="14" length="5"/>
    <parkingArea id="pa-15159" lane="-15159_0" roadsideCapacity="19" length="5"/>
    <parkingArea id="pa-15161" lane="-15161_0" roadsideCapacity="13" length="5"/>
    <parkingArea id="pa-15165" lane="-15165_0" roadsideCapacity="13" length="5"/>
    <parkingArea id="pa-15169" lane="-15169_0" roadsideCapacity="31" length="5"/>
    <parkingArea id="pa-15188" lane="-15188_0" roadsideCapacity="20" length="5"/>
    <parkingArea id="pa-152" lane="-152_0" roadsideCapacity="13" length="5"/>
    <parkingArea id="pa-15209" lane="-15209_0" roadsideCapacity="13" length="5"/>
    <parkingArea id="pa-15212" lane="-15212_0" roadsideCapacity="30" length="5"/>
    <parkingArea id="pa-15220" lane="-15220_0" roadsideCapacity="30" length="5"/>
    <parkingArea id="pa-15236" lane="-15236_0" roadsideCapacity="29" length="5"/>
    <parkingArea id="pa-15455" lane="-15455_0" roadsideCapacity="15" length="5"/>
    <parkingArea id="pa-15559" lane="-15559_0" roadsideCapacity="14" length="5"/>
    <parkingArea id="pa-15560" lane="-15560_0" roadsideCapacity="20" length="5"/>
    <parkingArea id="pa-15561" lane="-15561_0" roadsideCapacity="20" length="5"/>
    <parkingArea id="pa-15617" lane="-15617_0" roadsideCapacity="30" length="5"/>
    <parkingArea id="pa-15621" lane="-15621_0" roadsideCapacity="37" length="5"/>
    <parkingArea id="pa-15725" lane="-15725_0" roadsideCapacity="34" length="5"/>
    <parkingArea id="pa-15729" lane="-15729_0" roadsideCapacity="14" length="5"/>
    <parkingArea id="pa-15731" lane="-15731_0" roadsideCapacity="14" length="5"/>
    <parkingArea id="pa-15737" lane="-15737_0" roadsideCapacity="30" length="5"/>
    <parkingArea id="pa-15744" lane="-15744_0" roadsideCapacity="19" length="5"/>
    <parkingArea id="pa-15745" lane="-15745_0" roadsideCapacity="20" length="5"/>
    <parkingArea id="pa-15755" lane="-15755_0" roadsideCapacity="13" length="5"/>
    <parkingArea id="pa-15757" lane="-15757_0" roadsideCapacity="13" length="5"/>
    <parkingArea id="pa-15758" lane="-15758_0" roadsideCapacity="35" length="5"/>
    <parkingArea id="pa-15863" lane="-15863_0" roadsideCapacity="19" length="5"/>
    <parkingArea id="pa-15867" lane="-15867_0" roadsideCapacity="14" length="5"/>
    <parkingArea id="pa-15897" lane="-15897_0" roadsideCapacity="29" length="5"/>
    <parkingArea id="pa-15901" lane="-15901_0" roadsideCapacity="13" length="5"/>
    <parkingArea id="pa-15905" lane="-15905_0" roadsideCapacity="13" length="5"/>
    <parkingArea id="pa-15907" lane="-15907_0" roadsideCapacity="13" length="5"/>
    <parkingArea id="pa-15914" lane="-15914_0" roadsideCapacity="20" length="5"/>
    <parkingArea id="pa-1595" lane="-1595_0" roadsideCapacity="20" length="5"/>
    <parkingArea id="pa-1597" lane="-1597_0" roadsideCapacity="14" length="5"/>
    <parkingArea id="pa-16018" lane="-16018_0" roadsideCapacity="14" length="5"/>
    <parkingArea id="pa-16022" lane="-16022_0" roadsideCapacity="14" length="5"/>
    <parkingArea id="pa-16028" lane="-16028_0" roadsideCapacity="19" length="5"/>
    <parkingArea id="pa-1604" lane="-1604_0" roadsideCapacity="19" length="5"/>
    <parkingArea id="pa-1606" lane="-1606_0" roadsideCapacity="19" length="5"/>
    <parkingArea id="pa-1610" lane="-1610_0" roadsideCapacity="13" length="5"/>
    <parkingArea id="pa-16128" lane="-16128_0" roadsideCapacity="31" length="5"/>
    <parkingArea id="pa-16132" lane="-16132_0" roadsideCapacity="14" length="5"/>
    <parkingArea id="pa-1614" lane="-1614_0" roadsideCapacity="13" length="5"/>
    <parkingArea id="pa-16174" lane="-16174_0" roadsideCapacity="30" length="5"/>
    <parkingArea id="pa-16180" lane="-16180_0" roadsideCapacity="30" length="5"/>
    <parkingArea id="pa-162" lane="-162_0" roadsideCapacity="34" length="5"/>
    <parkingArea id="pa-16306" lane="-16306_0" roadsideCapacity="13" length="5"/>
    <parkingArea id="pa-16314" lane="-16314_0" roadsideCapacity="13" length="5"/>
    <parkingArea id="pa-16324" lane="-16324_0" roadsideCapacity="13" length="5"/>
    <parkingArea id="pa-16325" lane="-16325_0" roadsideCapacity="34" length="5"/>
    <parkingArea id="pa-16326" lane="-16326_0" roadsideCapacity="19" length="5"/>
    <parkingArea id="pa-16327" lane="-16327_0" roadsideCapacity="20" length="5"/>
    <parkingArea id="pa-16329" lane="-16329_0" roadsideCapacity="30" length="5"/>
    <parkingArea id="pa-16367" lane="-16367_0" roadsideCapacity="30" length="5"/>
    <parkingArea id="pa-164" lane="-164_0" roadsideCapacity="19" length="5"/>
    <parkingArea id="pa-16477" lane="-16477_0" roadsideCapacity="14" length="5"/>
    <parkingArea id="pa-16481" lane="-16481_0" roadsideCapacity="30" length="5"/>
    <parkingArea id="pa-16483" lane="-16483_0" roadsideCapacity="30" length="5"/>
    <parkingArea id="pa-16484" lane="-16484_0" roadsideCapacity="34" length="5"/>
    <parkingArea id="pa-16488" lane="-16488_0" roadsideCapacity="14" length="5"/>
    <parkingArea id="pa-16492" lane="-16492_0" roadsideCapacity="34" length="5"/>
    <parkingArea id="pa-16493" lane="-16493_0" roadsideCapacity="30" length="5"/>
    <parkingArea id="pa-16494" lane="-16494_0" roadsideCapacity="20" length="5"/>
    <parkingArea id="pa-16501" lane="-16501_0" roadsideCapacity="13" length="5"/>
    <parkingArea id="pa-16505" lane="-16505_0" roadsideCapacity="13" length="5"/>
    <parkingArea id="pa-16609" lane="-16609_0" roadsideCapacity="14" length="5"/>
    <parkingArea id="pa-16617" lane="-16617_0" roadsideCapacity="29" length="5"/>
    <parkingArea id="pa-16624" lane="-16624_0" roadsideCapacity="19" length="5"/>
    <parkingArea id="pa-16632" lane="-16632_0" roadsideCapacity="14" length="5"/>
    <parkingArea id="pa-16638" lane="-16638_0" roadsideCapacity="30" length="5"/>
    <parkingArea id="pa-16639" lane="-16639_0" roadsideCapacity="30" length="5"/>