<?xml version="1.0" encoding="UTF-8"?>
<!-- generated on 2023-07-19 12:42:06.489219 by generateParkingAreas.py v1_13_0+0000-4b5bca80615
<configuration>
    <net-file value="C:\Users\bochenin\RL project\materials\ridesharing\toy example\randgrid.net.xml"/>
    <output-file value="C:\Users\bochenin\RL project\materials\ridesharing\toy example\parkingareas.add.xml"/>
</configuration>

-->
<additional xmlns:xsi="http://www.w3.org/2001/XMLSchema-instance" xsi:noNamespaceSchemaLocation="http://sumo.dlr.de/xsd/additional_file.xsd">
    <parkingArea id="pa-1000" lane="-1000_0" roadsideCapacity="13" length="5"/>
    <parkingArea id="pa-1002" lane="-1002_0" roadsideCapacity="30" length="5"/>
    <parkingArea id="pa-1004" lane="-1004_0" roadsideCapacity="13" length="5"/>
    <parkingArea id="pa-1025" lane="-1025_0" roadsideCapacity="14" length="5"/>
    <parkingArea id="pa-1026" lane="-1026_0" roadsideCapacity="19" length="5"/>
    <parkingArea id="pa-1034" lane="-1034_0" roadsideCapacity="14" length="5"/>
    <parkingArea id="pa-109" lane="-109_0" roadsideCapacity="14" length="5"/>
    <parkingArea id="pa-11" lane="-11_0" roadsideCapacity="14" length="5"/>
    <parkingArea id="pa-1148" lane="-1148_0" roadsideCapacity="30" length="5"/>
    <parkingArea id="pa-1150" lane="-1150_0" roadsideCapacity="30" length="5"/>
    <parkingArea id="pa-1154" lane="-1154_0" roadsideCapacity="13" length="5"/>
    <parkingArea id="pa-1168" lane="-1168_0" roadsideCapacity="13" length="5"/>
    <parkingArea id="pa-1178" lane="-1178_0" roadsideCapacity="13" length="5"/>
    <parkingArea id="pa-1186" lane="-1186_0" roadsideCapacity="30" length="5"/>
    <parkingArea id="pa-1194" lane="-1194_0" roadsideCapacity="19" length="5"/>
    <parkingArea id="pa-120" lane="-120_0" roadsideCapacity="30" length="5"/>
    <parkingArea id="pa-1204" lane="-1204_0" roadsideCapacity="29" length="5"/>
    <parkingArea id="pa-1205" lane="-1205_0" roadsideCapacity="19" length="5"/>
    <parkingArea id="pa-1209" lane="-1209_0" roadsideCapacity="30" length="5"/>
    <parkingArea id="pa-1211" lane="-1211_0" roadsideCapacity="29" length="5"/>
    <parkingArea id="pa-1212" lane="-1212_0" roadsideCapacity="19" length="5"/>
    <parkingArea id="pa-123" lane="-123_0" roadsideCapacity="19" length="5"/>
    <parkingArea id="pa-1242" lane="-1242_0" roadsideCapacity="29" length="5"/>
    <parkingArea id="pa-1249" lane="-1249_0" roadsideCapacity="30" length="5"/>
    <parkingArea id="pa-1257" lane="-1257_0" roadsideCapacity="13" length="5"/>
    <parkingArea id="pa-1259" lane="-1259_0" roadsideCapacity="13" length="5"/>
    <parkingArea id="pa-131" lane="-131_0" roadsideCapacity="29" length="5"/>
    <parkingArea id="pa-144" lane="-144_0" roadsideCapacity="20" length="5"/>
    <parkingArea id="pa-1469" lane="-1469_0" roadsideCapacity="34" length="5"/>
    <parkingArea id="pa-1470" lane="-1470_0" roadsideCapacity="19" length="5"/>
    <parkingArea id="pa-1474" lane="-1474_0" roadsideCapacity="14" length="5"/>
    <parkingArea id="pa-148" lane="-148_0" roadsideCapacity="13" length="5"/>
    <parkingArea id="pa-1492" lane="-1492_0" roadsideCapacity="30" length="5"/>
    <parkingArea id="pa-15" lane="-15_0" roadsideCapacity="30" length="5"/>
    <parkingArea id="pa-152" lane="-152_0" roadsideCapacity="13" length="5"/>
    <parkingArea id="pa-1595" lane="-1595_0" roadsideCapacity="20" length="5"/>
    <parkingArea id="pa-1597" lane="-1597_0" roadsideCapacity="14" length="5"/>
    <parkingArea id="pa-1604" lane="-1604_0" roadsideCapacity="19" length="5"/>
    <parkingArea id="pa-1606" lane="-1606_0" roadsideCapacity="19" length="5"/>
    <parkingArea id="pa-1610" lane="-1610_0" roadsideCapacity="13" length="5"/>
    <parkingArea id="pa-1614" lane="-1614_0" roadsideCapacity="13" length="5"/>
    <parkingArea id="pa-162" lane="-162_0" roadsideCapacity="34" length="5"/>
    <parkingArea id="pa-164" lane="-164_0" roadsideCapacity="19" length="5"/>
    <parkingArea id="pa-172" lane="-172_0" roadsideCapacity="14" length="5"/>
    <parkingArea id="pa-1722" lane="-1722_0" roadsideCapacity="30" length="5"/>
    <parkingArea id="pa-1725" lane="-1725_0" roadsideCapacity="14" length="5"/>
    <parkingArea id="pa-1737" lane="-1737_0" roadsideCapacity="30" length="5"/>
    <parkingArea id="pa-1739" lane="-1739_0" roadsideCapacity="13" length="5"/>
    <parkingArea id="pa-1741" lane="-1741_0" roadsideCapacity="14" length="5"/>
    <parkingArea id="pa-1747" lane="-1747_0" roadsideCapacity="14" length="5"/>
    <parkingArea id="pa-1755" lane="-1755_0" roadsideCapacity="19" length="5"/>
    <parkingArea id="pa-1758" lane="-1758_0" roadsideCapacity="14" length="5"/>
    <parkingArea id="pa-1766" lane="-1766_0" roadsideCapacity="29" length="5"/>
    <parkingArea id="pa-1774" lane="-1774_0" roadsideCapacity="30" length="5"/>
    <parkingArea id="pa-1775" lane="-1775_0" roadsideCapacity="34" length="5"/>
    <parkingArea id="pa-1777" lane="-1777_0" roadsideCapacity="34" length="5"/>
    <parkingArea id="pa-1781" lane="-1781_0" roadsideCapacity="20" length="5"/>
    <parkingArea id="pa-1785" lane="-1785_0" roadsideCapacity="30" length="5"/>
    <parkingArea id="pa-184" lane="-184_0" roadsideCapacity="14" length="5"/>
    <parkingArea id="pa-190" lane="-190_0" roadsideCapacity="30" length="5"/>
    <parkingArea id="pa-1915" lane="-1915_0" roadsideCapacity="30" length="5"/>
    <parkingArea id="pa-1918" lane="-1918_0" roadsideCapacity="19" length="5"/>
    <parkingArea id="pa-1925" lane="-1925_0" roadsideCapacity="34" length="5"/>
    <parkingArea id="pa-1934" lane="-1934_0" roadsideCapacity="14" length="5"/>
    <parkingArea id="pa-1939" lane="-1939_0" roadsideCapacity="20" length="5"/>
    <parkingArea id="pa-1940" lane="-1940_0" roadsideCapacity="30" length="5"/>
    <parkingArea id="pa-1946" lane="-1946_0" roadsideCapacity="29" length="5"/>
    <parkingArea id="pa-1950" lane="-1950_0" roadsideCapacity="30" length="5"/>
    <parkingArea id="pa-1951" lane="-1951_0" roadsideCapacity="20" length="5"/>
    <parkingArea id="pa-1956" lane="-1956_0" roadsideCapacity="34" length="5"/>
    <parkingArea id="pa-196" lane="-196_0" roadsideCapacity="30" length="5"/>
    <parkingArea id="pa-1960" lane="-1960_0" roadsideCapacity="14" length="5"/>
    <parkingArea id="pa-1962" lane="-1962_0" roadsideCapacity="31" length="5"/>
    <parkingArea id="pa-1972" lane="-1972_0" roadsideCapacity="30" length="5"/>
    <parkingArea id="pa-1974" lane="-1974_0" roadsideCapacity="13" length="5"/>
    <parkingArea id="pa-1980" lane="-1980_0" roadsideCapacity="13" length="5"/>
    <parkingArea id="pa-1986" lane="-1986_0" roadsideCapacity="13" length="5"/>
    <parkingArea id="pa-1987" lane="-1987_0" roadsideCapacity="34" length="5"/>
    <parkingArea id="pa-1988" lane="-1988_0" roadsideCapacity="34" length="5"/>
    <parkingArea id="pa-199" lane="-199_0" roadsideCapacity="30" length="5"/>
    <parkingArea id="pa-1992" lane="-1992_0" roadsideCapacity="34" length="5"/>
    <parkingArea id="pa-1994" lane="-1994_0" roadsideCapacity="30" length="5"/>
    <parkingArea id="pa-202" lane="-202_0" roadsideCapacity="20" length="5"/>
    <parkingArea id="pa-2020" lane="-2020_0" roadsideCapacity="31" length="5"/>
    <parkingArea id="pa-206" lane="-206_0" roadsideCapacity="30" length="5"/>
    <parkingArea id="pa-2126" lane="-2126_0" roadsideCapacity="14" length="5"/>
    <parkingArea id="pa-2128" lane="-2128_0" roadsideCapacity="30" length="5"/>
    <parkingArea id="pa-2138" lane="-2138_0" roadsideCapacity="13" length="5"/>
    <parkingArea id="pa-214" lane="-214_0" roadsideCapacity="30" length="5"/>
    <parkingArea id="pa-2149" lane="-2149_0" roadsideCapacity="29" length="5"/>
    <parkingArea id="pa-2151" lane="-2151_0" roadsideCapacity="19" length="5"/>
    <parkingArea id="pa-2158" lane="-2158_0" roadsideCapacity="21" length="5"/>
    <parkingArea id="pa-2165" lane="-2165_0" roadsideCapacity="30" length="5"/>
    <parkingArea id="pa-2169" lane="-2169_0" roadsideCapacity="19" length="5"/>
    <parkingArea id="pa-2173" lane="-2173_0" roadsideCapacity="14" length="5"/>
    <parkingArea id="pa-2182" lane="-2182_0" roadsideCapacity="30" length="5"/>
    <parkingArea id="pa-219" lane="-219_0" roadsideCapacity="21" length="5"/>
    <parkingArea id="pa-2192" lane="-2192_0" roadsideCapacity="14" length="5"/>
    <parkingArea id="pa-2199" lane="-2199_0" roadsideCapacity="15" length="5"/>
    <parkingArea id="pa-2213" lane="-2213_0" roadsideCapacity="31" length="5"/>
    <parkingArea id="pa-2214" lane="-2214_0" roadsideCapacity="20" length="5"/>
    <parkingArea id="pa-2220" lane="-2220_0" roadsideCapacity="30" length="5"/>
    <parkingArea id="pa-2228" lane="-2228_0" roadsideCapacity="34" length="5"/>
    <parkingArea id="pa-2230" lane="-2230_0" roadsideCapacity="34" length="5"/>
    <parkingArea id="pa-2232" lane="-2232_0" roadsideCapacity="14" length="5"/>
    <parkingArea id="pa-2238" lane="-2238_0" roadsideCapacity="31" length="5"/>
    <parkingArea id="pa-2243" lane="-2243_0" roadsideCapacity="13" length="5"/>
    <parkingArea id="pa-2251" lane="-2251_0" roadsideCapacity="13" length="5"/>
    <parkingArea id="pa-2271" lane="-2271_0" roadsideCapacity="14" length="5"/>
    <parkingArea id="pa-2273" lane="-2273_0" roadsideCapacity="30" length="5"/>
    <parkingArea id="pa-2283" lane="-2283_0" roadsideCapacity="30" length="5"/>
    <parkingArea id="pa-2284" lane="-2284_0" roadsideCapacity="14" length="5"/>
    <parkingArea id="pa-229" lane="-229_0" roadsideCapacity="14" length="5"/>
    <parkingArea id="pa-23" lane="-23_0" roadsideCapacity="14" length="5"/>
    <parkingArea id="pa-2316" lane="-2316_0" roadsideCapacity="29" length="5"/>
    <parkingArea id="pa-2322" lane="-2322_0" roadsideCapacity="13" length="5"/>
    <parkingArea id="pa-2326" lane="-2326_0" roadsideCapacity="19" length="5"/>
    <parkingArea id="pa-2331" lane="-2331_0" roadsideCapacity="19" length="5"/>
    <parkingArea id="pa-2333" lane="-2333_0" roadsideCapacity="13" length="5"/>
    <parkingArea id="pa-2335" lane="-2335_0" roadsideCapacity="13" length="5"/>
    <parkingArea id="pa-2343" lane="-2343_0" roadsideCapacity="29" length="5"/>
    <parkingArea id="pa-2344" lane="-2344_0" roadsideCapacity="20" length="5"/>
    <parkingArea id="pa-2358" lane="-2358_0" roadsideCapacity="15" length="5"/>
    <parkingArea id="pa-2372" lane="-2372_0" roadsideCapacity="35" length="5"/>
    <parkingArea id="pa-2387" lane="-2387_0" roadsideCapacity="30" length="5"/>
    <parkingArea id="pa-2391" lane="-2391_0" roadsideCapacity="13" length="5"/>
    <parkingArea id="pa-2396" lane="-2396_0" roadsideCapacity="29" length="5"/>
    <parkingArea id="pa-2402" lane="-2402_0" roadsideCapacity="19" length="5"/>
    <parkingArea id="pa-2405" lane="-2405_0" roadsideCapacity="14" length="5"/>
    <parkingArea id="pa-2425" lane="-2425_0" roadsideCapacity="13" length="5"/>
    <parkingArea id="pa-2426" lane="-2426_0" roadsideCapacity="20" length="5"/>
    <parkingArea id="pa-2428" lane="-2428_0" roadsideCapacity="14" length="5"/>
    <parkingArea id="pa-2435" lane="-2435_0" roadsideCapacity="13" length="5"/>
    <parkingArea id="pa-2438" lane="-2438_0" roadsideCapacity="14" length="5"/>
    <parkingArea id="pa-2440" lane="-2440_0" roadsideCapacity="34" length="5"/>
    <parkingArea id="pa-2442" lane="-2442_0" roadsideCapacity="14" length="5"/>
    <parkingArea id="pa-2468" lane="-2468_0" roadsideCapacity="31" length="5"/>
    <parkingArea id="pa-2480" lane="-2480_0" roadsideCapacity="14" length="5"/>
    <parkingArea id="pa-2492" lane="-2492_0" roadsideCapacity="30" length="5"/>
    <parkingArea id="pa-2502" lane="-2502_0" roadsideCapacity="15" length="5"/>
    <parkingArea id="pa-2609" lane="-2609_0" roadsideCapacity="34" length="5"/>
    <parkingArea id="pa-2612" lane="-2612_0" roadsideCapacity="34" length="5"/>
    <parkingArea id="pa-2613" lane="-2613_0" roadsideCapacity="20" length="5"/>
    <parkingArea id="pa-2623" lane="-2623_0" roadsideCapacity="13" length="5"/>
    <parkingArea id="pa-2632" lane="-2632_0" roadsideCapacity="14" length="5"/>
    <parkingArea id="pa-2633" lane="-2633_0" roadsideCapacity="35" length="5"/>
    <parkingArea id="pa-2650" lane="-2650_0" roadsideCapacity="14" length="5"/>
    <parkingArea id="pa-2660" lane="-2660_0" roadsideCapacity="19" length="5"/>
    <parkingArea id="pa-2662" lane="-2662_0" roadsideCapacity="30" length="5"/>
    <parkingArea id="pa-2664" lane="-2664_0" roadsideCapacity="13" length="5"/>
    <parkingArea id="pa-27" lane="-27_0" roadsideCapacity="13" length="5"/>
    <parkingArea id="pa-2873" lane="-2873_0" roadsideCapacity="13" length="5"/>
    <parkingArea id="pa-2899" lane="-2899_0" roadsideCapacity="13" length="5"/>
    <parkingArea id="pa-2918" lane="-2918_0" roadsideCapacity="13" length="5"/>
    <parkingArea id="pa-2924" lane="-2924_0" roadsideCapacity="13" length="5"/>
    <parkingArea id="pa-2930" lane="-2930_0" roadsideCapacity="13" length="5"/>
    <parkingArea id="pa-2934" lane="-2934_0" roadsideCapacity="30" length="5"/>
    <parkingArea id="pa-2936" lane="-2936_0" roadsideCapacity="30" length="5"/>
    <parkingArea id="pa-2937" lane="-2937_0" roadsideCapacity="34" length="5"/>
    <parkingArea id="pa-3" lane="-3_0" roadsideCapacity="30" length="5"/>
    <parkingArea id="pa-3046" lane="-3046_0" roadsideCapacity="19" length="5"/>
    <parkingArea id="pa-3051" lane="-3051_0" roadsideCapacity="13" length="5"/>
    <parkingArea id="pa-3055" lane="-3055_0" roadsideCapacity="13" length="5"/>
    <parkingArea id="pa-3059" lane="-3059_0" roadsideCapacity="19" length="5"/>
    <parkingArea id="pa-3060" lane="-3060_0" roadsideCapacity="34" length="5"/>
    <parkingArea id="pa-3068" lane="-3068_0" roadsideCapacity="30" length="5"/>
    <parkingArea id="pa-3076" lane="-3076_0" roadsideCapacity="30" length="5"/>
    <parkingArea id="pa-3092" lane="-3092_0" roadsideCapacity="19" length="5"/>
    <parkingArea id="pa-3093" lane="-3093_0" roadsideCapacity="19" length="5"/>
    <parkingArea id="pa-3095" lane="-3095_0" roadsideCapacity="29" length="5"/>
    <parkingArea id="pa-3096" lane="-3096_0" roadsideCapacity="14" length="5"/>
    <parkingArea id="pa-31" lane="-31_0" roadsideCapacity="13" length="5"/>
    <parkingArea id="pa-3100" lane="-3100_0" roadsideCapacity="32" length="5"/>
    <parkingArea id="pa-3101" lane="-3101_0" roadsideCapacity="19" length="5"/>
    <parkingArea id="pa-3102" lane="-3102_0" roadsideCapacity="29" length="5"/>
    <parkingArea id="pa-3103" lane="-3103_0" roadsideCapacity="20" length="5"/>
    <parkingArea id="pa-3144" lane="-3144_0" roadsideCapacity="30" length="5"/>
    <parkingArea id="pa-3146" lane="-3146_0" roadsideCapacity="14" length="5"/>
    <parkingArea id="pa-3153" lane="-3153_0" roadsideCapacity="19" length="5"/>
    <parkingArea id="pa-3155" lane="-3155_0" roadsideCapacity="15" length="5"/>
    <parkingArea id="pa-3160" lane="-3160_0" roadsideCapacity="34" length="5"/>
    <parkingArea id="pa-3162" lane="-3162_0" roadsideCapacity="30" length="5"/>
    <parkingArea id="pa-3192" lane="-3192_0" roadsideCapacity="30" length="5"/>
    <parkingArea id="pa-3193" lane="-3193_0" roadsideCapacity="30" length="5"/>
    <parkingArea id="pa-3195" lane="-3195_0" roadsideCapacity="30" length="5"/>
    <parkingArea id="pa-3200" lane="-3200_0" roadsideCapacity="15" length="5"/>
    <parkingArea id="pa-3205" lane="-3205_0" roadsideCapacity="30" length="5"/>
    <parkingArea id="pa-3214" lane="-3214_0" roadsideCapacity="34" length="5"/>
    <parkingArea id="pa-3220" lane="-3220_0" roadsideCapacity="15" length="5"/>
    <parkingArea id="pa-3236" lane="-3236_0" roadsideCapacity="14" length="5"/>
    <parkingArea id="pa-3238" lane="-3238_0" roadsideCapacity="30" length="5"/>
    <parkingArea id="pa-334" lane="-334_0" roadsideCapacity="29" length="5"/>
    <parkingArea id="pa-3341" lane="-3341_0" roadsideCapacity="34" length="5"/>
    <parkingArea id="pa-3343" lane="-3343_0" roadsideCapacity="14" length="5"/>
    <parkingArea id="pa-3359" lane="-3359_0" roadsideCapacity="30" length="5"/>
    <parkingArea id="pa-3363" lane="-3363_0" roadsideCapacity="34" length="5"/>
    <parkingArea id="pa-3366" lane="-3366_0" roadsideCapacity="14" length="5"/>
    <parkingArea id="pa-3368" lane="-3368_0" roadsideCapacity="32" length="5"/>
    <parkingArea id="pa-3372" lane="-3372_0" roadsideCapacity="15" length="5"/>
    <parkingArea id="pa-338" lane="-338_0" roadsideCapacity="30" length="5"/>
    <parkingArea id="pa-340" lane="-340_0" roadsideCapacity="14" length="5"/>
    <parkingArea id="pa-3498" lane="-3498_0" roadsideCapacity="13" length="5"/>
    <parkingArea id="pa-3501" lane="-3501_0" roadsideCapacity="13" length="5"/>
    <parkingArea id="pa-3503" lane="-3503_0" roadsideCapacity="30" length="5"/>
    <parkingArea id="pa-3505" lane="-3505_0" roadsideCapacity="14" length="5"/>
    <parkingArea id="pa-3507" lane="-3507_0" roadsideCapacity="32" length="5"/>
    <parkingArea id="pa-3531" lane="-3531_0" roadsideCapacity="13" length="5"/>
    <parkingArea id="pa-3549" lane="-3549_0" roadsideCapacity="30" length="5"/>
    <parkingArea id="pa-3587" lane="-3587_0" roadsideCapacity="30" length="5"/>
    <parkingArea id="pa-3590" lane="-3590_0" roadsideCapacity="13" length="5"/>
    <parkingArea id="pa-3660" lane="-3660_0" roadsideCapacity="30" length="5"/>
    <parkingArea id="pa-3663" lane="-3663_0" roadsideCapacity="30" length="5"/>
    <parkingArea id="pa-3665" lane="-3665_0" roadsideCapacity="13" length="5"/>
    <parkingArea id="pa-3671" lane="-3671_0" roadsideCapacity="14" length="5"/>
    <parkingArea id="pa-3675" lane="-3675_0" roadsideCapacity="20" length="5"/>
    <parkingArea id="pa-3677" lane="-3677_0" roadsideCapacity="30" length="5"/>
    <parkingArea id="pa-3687" lane="-3687_0" roadsideCapacity="32" length="5"/>
    <parkingArea id="pa-37" lane="-37_0" roadsideCapacity="13" length="5"/>
    <parkingArea id="pa-3806" lane="-3806_0" roadsideCapacity="30" length="5"/>
    <parkingArea id="pa-3808" lane="-3808_0" roadsideCapacity="30" length="5"/>
    <parkingArea id="pa-3916" lane="-3916_0" roadsideCapacity="13" length="5"/>
    <parkingArea id="pa-3920" lane="-3920_0" roadsideCapacity="13" length="5"/>
    <parkingArea id="pa-3922" lane="-3922_0" roadsideCapacity="34" length="5"/>
    <parkingArea id="pa-3929" lane="-3929_0" roadsideCapacity="19" length="5"/>
    <parkingArea id="pa-3930" lane="-3930_0" roadsideCapacity="34" length="5"/>
    <parkingArea id="pa-3934" lane="-3934_0" roadsideCapacity="29" length="5"/>
    <parkingArea id="pa-3936" lane="-3936_0" roadsideCapacity="19" length="5"/>
    <parkingArea id="pa-3938" lane="-3938_0" roadsideCapacity="19" length="5"/>
    <parkingArea id="pa-3939" lane="-3939_0" roadsideCapacity="31" length="5"/>
    <parkingArea id="pa-3940" lane="-3940_0" roadsideCapacity="20" length="5"/>
    <parkingArea id="pa-3948" lane="-3948_0" roadsideCapacity="29" length="5"/>
    <parkingArea id="pa-4167" lane="-4167_0" roadsideCapacity="29" length="5"/>
    <parkingArea id="pa-4173" lane="-4173_0" roadsideCapacity="30" length="5"/>
    <parkingArea id="pa-4179" lane="-4179_0" roadsideCapacity="14" length="5"/>
    <parkingArea id="pa-4265" lane="-4265_0" roadsideCapacity="30" length="5"/>
    <parkingArea id="pa-4267" lane="-4267_0" roadsideCapacity="34" length="5"/>
    <parkingArea id="pa-4276" lane="-4276_0" roadsideCapacity="34" length="5"/>
    <parkingArea id="pa-4278" lane="-4278_0" roadsideCapacity="19" length="5"/>
    <parkingArea id="pa-4279" lane="-4279_0" roadsideCapacity="20" length="5"/>
    <parkingArea id="pa-4297" lane="-4297_0" roadsideCapacity="30" length="5"/>
    <parkingArea id="pa-4298" lane="-4298_0" roadsideCapacity="20" length="5"/>
    <parkingArea id="pa-43" lane="-43_0" roadsideCapacity="13" length="5"/>
    <parkingArea id="pa-4316" lane="-4316_0" roadsideCapacity="30" length="5"/>
    <parkingArea id="pa-4319" lane="-4319_0" roadsideCapacity="35" length="5"/>
    <parkingArea id="pa-4330" lane="-4330_0" roadsideCapacity="14" length="5"/>
    <parkingArea id="pa-4334" lane="-4334_0" roadsideCapacity="14" length="5"/>
    <parkingArea id="pa-4354" lane="-4354_0" roadsideCapacity="14" length="5"/>
    <parkingArea id="pa-4358" lane="-4358_0" roadsideCapacity="32" length="5"/>
    <parkingArea id="pa-4362" lane="-4362_0" roadsideCapacity="15" length="5"/>
    <parkingArea id="pa-444" lane="-444_0" roadsideCapacity="20" length="5"/>
    <parkingArea id="pa-4476" lane="-4476_0" roadsideCapacity="34" length="5"/>
    <parkingArea id="pa-4479" lane="-4479_0" roadsideCapacity="32" length="5"/>
    <parkingArea id="pa-4493" lane="-4493_0" roadsideCapacity="15" length="5"/>
    <parkingArea id="pa-45" lane="-45_0" roadsideCapacity="13" length="5"/>
    <parkingArea id="pa-4514" lane="-4514_0" roadsideCapacity="14" length="5"/>
    <parkingArea id="pa-4516" lane="-4516_0" roadsideCapacity="31" length="5"/>
    <parkingArea id="pa-4527" lane="-4527_0" roadsideCapacity="32" length="5"/>
    <parkingArea id="pa-4531" lane="-4531_0" roadsideCapacity="15" length="5"/>
    <parkingArea id="pa-4534" lane="-4534_0" roadsideCapacity="34" length="5"/>
    <parkingArea id="pa-4536" lane="-4536_0" roadsideCapacity="14" length="5"/>
    <parkingArea id="pa-4592" lane="-4592_0" roadsideCapacity="30" length="5"/>
    <parkingArea id="pa-4598" lane="-4598_0" roadsideCapacity="14" length="5"/>
    <parkingArea id="pa-4599" lane="-4599_0" roadsideCapacity="30" length="5"/>
    <parkingArea id="pa-4609" lane="-4609_0" roadsideCapacity="14" length="5"/>
    <parkingArea id="pa-462" lane="-462_0" roadsideCapacity="14" length="5"/>
    <parkingArea id="pa-4716" lane="-4716_0" roadsideCapacity="15" length="5"/>
    <parkingArea id="pa-4718" lane="-4718_0" roadsideCapacity="32" length="5"/>
    <parkingArea id="pa-474" lane="-474_0" roadsideCapacity="30" length="5"/>
    <parkingArea id="pa-4741" lane="-4741_0" roadsideCapacity="15" length="5"/>
    <parkingArea id="pa-4747" lane="-4747_0" roadsideCapacity="32" length="5"/>
    <parkingArea id="pa-4853" lane="-4853_0" roadsideCapacity="32" length="5"/>
    <parkingArea id="pa-4863" lane="-4863_0" roadsideCapacity="14" length="5"/>
    <parkingArea id="pa-4873" lane="-4873_0" roadsideCapacity="32" length="5"/>
    <parkingArea id="pa-4889" lane="-4889_0" roadsideCapacity="15" length="5"/>
    <parkingArea id="pa-4890" lane="-4890_0" roadsideCapacity="34" length="5"/>
    <parkingArea id="pa-4916" lane="-4916_0" roadsideCapacity="14" length="5"/>
    <parkingArea id="pa-4919" lane="-4919_0" roadsideCapacity="31" length="5"/>
    <parkingArea id="pa-4921" lane="-4921_0" roadsideCapacity="34" length="5"/>
    <parkingArea id="pa-4923" lane="-4923_0" roadsideCapacity="20" length="5"/>
    <parkingArea id="pa-5" lane="-5_0" roadsideCapacity="14" length="5"/>
    <parkingArea id="pa-5053" lane="-5053_0" roadsideCapacity="32" length="5"/>
    <parkingArea id="pa-5055" lane="-5055_0" roadsideCapacity="15" length="5"/>
    <parkingArea id="pa-5059" lane="-5059_0" roadsideCapacity="32" length="5"/>
    <parkingArea id="pa-5064" lane="-5064_0" roadsideCapacity="15" length="5"/>
    <parkingArea id="pa-5070" lane="-5070_0" roadsideCapacity="32" length="5"/>
    <parkingArea id="pa-5074" lane="-5074_0" roadsideCapacity="16" length="5"/>
    <parkingArea id="pa-5178" lane="-5178_0" roadsideCapacity="15" length="5"/>
    <parkingArea id="pa-55" lane="-55_0" roadsideCapacity="13" length="5"/>
    <parkingArea id="pa-58" lane="-58_0" roadsideCapacity="19" length="5"/>
    <parkingArea id="pa-583" lane="-583_0" roadsideCapacity="34" length="5"/>
    <parkingArea id="pa-587" lane="-587_0" roadsideCapacity="29" length="5"/>
    <parkingArea id="pa-588" lane="-588_0" roadsideCapacity="34" length="5"/>
    <parkingArea id="pa-592" lane="-592_0" roadsideCapacity="35" length="5"/>
    <parkingArea id="pa-60" lane="-60_0" roadsideCapacity="13" length="5"/>
    <parkingArea id="pa-612" lane="-612_0" roadsideCapacity="13" length="5"/>
    <parkingArea id="pa-64" lane="-64_0" roadsideCapacity="13" length="5"/>
    <parkingArea id="pa-68" lane="-68_0" roadsideCapacity="19" length="5"/>
    <parkingArea id="pa-71" lane="-71_0" roadsideCapacity="19" length="5"/>
    <parkingArea id="pa-75" lane="-75_0" roadsideCapacity="19" length="5"/>
    <parkingArea id="pa-79" lane="-79_0" roadsideCapacity="13" length="5"/>
    <parkingArea id="pa-827" lane="-827_0" roadsideCapacity="19" length="5"/>
    <parkingArea id="pa-831" lane="-831_0" roadsideCapacity="29" length="5"/>
    <parkingArea id="pa-844" lane="-844_0" roadsideCapacity="20" length="5"/>
    <parkingArea id="pa-852" lane="-852_0" roadsideCapacity="30" length="5"/>
    <parkingArea id="pa-854" lane="-854_0" roadsideCapacity="14" length="5"/>
    <parkingArea id="pa-865" lane="-865_0" roadsideCapacity="34" length="5"/>
    <parkingArea id="pa-873" lane="-873_0" roadsideCapacity="14" length="5"/>
    <parkingArea id="pa-879" lane="-879_0" roadsideCapacity="30" length="5"/>
    <parkingArea id="pa-92" lane="-92_0" roadsideCapacity="29" length="5"/>
    <parkingArea id="pa-991" lane="-991_0" roadsideCapacity="34" length="5"/>
    <parkingArea id="pa1000" lane="1000_0" roadsideCapacity="13" length="5"/>
    <parkingArea id="pa1002" lane="1002_0" roadsideCapacity="30" length="5"/>
    <parkingArea id="pa1004" lane="1004_0" roadsideCapacity="13" length="5"/>
    <parkingArea id="pa1025" lane="1025_0" roadsideCapacity="14" length="5"/>
    <parkingArea id="pa1026" lane="1026_0" roadsideCapacity="19" length="5"/>
    <parkingArea id="pa1034" lane="1034_0" roadsideCapacity="14" length="5"/>
    <parkingArea id="pa109" lane="109_0" roadsideCapacity="14" length="5"/>
    <parkingArea id="pa11" lane="11_0" roadsideCapacity="14" length="5"/>
    <parkingArea id="pa1148" lane="1148_0" roadsideCapacity="30" length="5"/>
    <parkingArea id="pa1150" lane="1150_0" roadsideCapacity="30" length="5"/>
    <parkingArea id="pa1154" lane="1154_0" roadsideCapacity="13" length="5"/>
    <parkingArea id="pa1168" lane="1168_0" roadsideCapacity="13" length="5"/>
    <parkingArea id="pa1178" lane="1178_0" roadsideCapacity="13" length="5"/>
    <parkingArea id="pa1186" lane="1186_0" roadsideCapacity="30" length="5"/>
    <parkingArea id="pa1194" lane="1194_0" roadsideCapacity="19" length="5"/>
    <parkingArea id="pa120" lane="120_0" roadsideCapacity="30" length="5"/>
    <parkingArea id="pa1204" lane="1204_0" roadsideCapacity="29" length="5"/>
    <parkingArea id="pa1205" lane="1205_0" roadsideCapacity="19" length="5"/>
    <parkingArea id="pa1209" lane="1209_0" roadsideCapacity="30" length="5"/>
    <parkingArea id="pa1211" lane="1211_0" roadsideCapacity="29" length="5"/>
    <parkingArea id="pa1212" lane="1212_0" roadsideCapacity="19" length="5"/>
    <parkingArea id="pa123" lane="123_0" roadsideCapacity="19" length="5"/>
    <parkingArea id="pa1242" lane="1242_0" roadsideCapacity="29" length="5"/>
    <parkingArea id="pa1249" lane="1249_0" roadsideCapacity="30" length="5"/>
    <parkingArea id="pa1257" lane="1257_0" roadsideCapacity="13" length="5"/>
    <parkingArea id="pa1259" lane="1259_0" roadsideCapacity="13" length="5"/>
    <parkingArea id="pa131" lane="131_0" roadsideCapacity="29" length="5"/>
    <parkingArea id="pa144" lane="144_0" roadsideCapacity="20" length="5"/>
    <parkingArea id="pa1469" lane="1469_0" roadsideCapacity="34" length="5"/>
    <parkingArea id="pa1470" lane="1470_0" roadsideCapacity="19" length="5"/>
    <parkingArea id="pa1474" lane="1474_0" roadsideCapacity="14" length="5"/>
    <parkingArea id="pa148" lane="148_0" roadsideCapacity="13" length="5"/>
    <parkingArea id="pa1492" lane="1492_0" roadsideCapacity="30" length="5"/>
    <parkingArea id="pa15" lane="15_0" roadsideCapacity="30" length="5"/>
    <parkingArea id="pa152" lane="152_0" roadsideCapacity="13" length="5"/>
    <parkingArea id="pa1595" lane="1595_0" roadsideCapacity="20" length="5"/>
    <parkingArea id="pa1597" lane="1597_0" roadsideCapacity="14" length="5"/>
    <parkingArea id="pa1604" lane="1604_0" roadsideCapacity="19" length="5"/>
    <parkingArea id="pa1606" lane="1606_0" roadsideCapacity="19" length="5"/>
    <parkingArea id="pa1610" lane="1610_0" roadsideCapacity="13" length="5"/>
    <parkingArea id="pa1614" lane="1614_0" roadsideCapacity="13" length="5"/>
    <parkingArea id="pa162" lane="162_0" roadsideCapacity="34" length="5"/>
    <parkingArea id="pa164" lane="164_0" roadsideCapacity="19" length="5"/>
    <parkingArea id="pa172" lane="172_0" roadsideCapacity="14" length="5"/>
    <parkingArea id="pa1722" lane="1722_0" roadsideCapacity="30" length="5"/>
    <parkingArea id="pa1725" lane="1725_0" roadsideCapacity="14" length="5"/>
    <parkingArea id="pa1737" lane="1737_0" roadsideCapacity="30" length="5"/>
    <parkingArea id="pa1739" lane="1739_0" roadsideCapacity="13" length="5"/>
    <parkingArea id="pa1741" lane="1741_0" roadsideCapacity="14" length="5"/>
    <parkingArea id="pa1747" lane="1747_0" roadsideCapacity="14" length="5"/>
    <parkingArea id="pa1755" lane="1755_0" roadsideCapacity="19" length="5"/>
    <parkingArea id="pa1758" lane="1758_0" roadsideCapacity="14" length="5"/>
    <parkingArea id="pa1766" lane="1766_0" roadsideCapacity="29" length="5"/>
    <parkingArea id="pa1774" lane="1774_0" roadsideCapacity="30" length="5"/>
    <parkingArea id="pa1775" lane="1775_0" roadsideCapacity="34" length="5"/>
    <parkingArea id="pa1777" lane="1777_0" roadsideCapacity="34" length="5"/>
    <parkingArea id="pa1781" lane="1781_0" roadsideCapacity="20" length="5"/>