<?xml version="1.0" encoding="UTF-8"?>

<!-- generated on 2024-07-07 14:06:32.136000 by cutRoutes.py UNKNOWN
  options: smaller_areas/nets/area1/area1_disconnected.net.xml output/sim_routes.rou.xml <doubleminus>default.departSpeed max <doubleminus>default.departLane best <doubleminus>disconnected-action keep <doubleminus>trips-output smaller_areas/routes/area1/cut_trips_area1_disconnected.rou.xml
-->

<routes xmlns:xsi="http://www.w3.org/2001/XMLSchema-instance" xsi:noNamespaceSchemaLocation="http://sumo.dlr.de/xsd/routes_file.xsd">
    <trip depart="1.00" id="rs_c001_i000_0" from="321098632#1" to="24977182" type="None" departLane="0" departSpeed="7.816"/>
    <trip depart="4.00" id="rs_c000_i000_48" from="-38807023" to="41882139" type="None" departLane="0" departSpeed="15.5471"/>
    <trip depart="4.00" id="rs_c000_i000_49" from="-26037066" to="417810022" type="None" departLane="0" departSpeed="8.4616"/>
    <trip depart="5.00" id="rs_c000_i001_5_part0" from="-48215535#0" to="-234955764" type="None" departLane="0" departSpeed="8.6632"/>
    <trip depart="5.00" id="rs_c000_i000_57" from="-126709272#1" to="26185946" type="None" departLane="0" departSpeed="8.1792"/>
    <trip depart="5.00" id="rs_c000_i000_59_part0" from="116049443#1" to="-116049443#1" type="None" departLane="0" departSpeed="8.3908"/>
    <trip depart="6.00" id="rs_c000_i000_72" from="96596615#1" to="41882139" type="None" departLane="0" departSpeed="9.2613"/>
    <trip depart="7.00" id="rs_c000_i000_81" from="5231759" to="24429366" type="None" departLane="0" departSpeed="10.6289"/>
    <trip depart="8.00" id="rs_c000_i000_105" from="-52673136" to="26192899" type="None" departLane="0" departSpeed="9.6028"/>
    <trip depart="12.00" id="rs_c000_i000_136" from="223125596" to="417810022" type="None" departLane="1" departSpeed="12.0755"/>
    <trip depart="13.00" id="rs_c000_i000_148" from="-117654815#1" to="223401059#0" type="None" departLane="0" departSpeed="0.00"/>
    <trip depart="14.00" id="rs_c000_i000_151" from="222307221#0" to="223401059#0" type="None" departLane="0" departSpeed="7.7294"/>
    <trip depart="14.00" id="rs_c000_i001_15" from="125828734" to="24429366" type="None" departLane="0" departSpeed="7.2704"/>
    <trip depart="17.00" id="rs_c000_i000_194" from="-137996247" to="24436432" type="None" departLane="0" departSpeed="8.4191"/>
    <trip depart="17.00" id="rs_c000_i000_197" from="-212690606" to="61282209#0" type="None" departLane="0" departSpeed="9.4945"/>
    <trip depart="18.00" id="rs_c001_i000_29" from="-59683580#0" to="26192899" type="None" departLane="0" departSpeed="14.4408"/>
    <trip depart="18.00" id="rs_c001_i000_31" from="-63134322#1" to="26192899" type="None" departLane="0" departSpeed="9.2902"/>
    <trip depart="18.00" id="rs_c000_i000_209" from="26959985" to="26185946" type="None" departLane="0" departSpeed="8.7024"/>
    <trip depart="19.00" id="rs_c000_i000_228_part0" from="-94107509" to="-94107509" type="None" departLane="0" departSpeed="10.8756"/>
    <trip depart="20.00" id="rs_c000_i000_245" from="-61367432" to="41882139" type="None" departLane="0" departSpeed="7.9668"/>
    <trip depart="22.00" id="rs_c000_i000_260" from="-45578880" to="24436432" type="None" departLane="0" departSpeed="10.5734"/>
    <trip depart="23.00" id="rs_c000_i000_277" from="-122529098#1" to="24429366" type="None" departLane="0" departSpeed="9.2138"/>
    <trip depart="24.00" id="rs_c001_i001_7" from="219528064" to="24977182" type="None" departLane="0" departSpeed="14.1039"/>
    <trip depart="24.00" id="rs_c000_i001_32" from="-117643614#1" to="24429366" type="None" departLane="0" departSpeed="10.7878"/>
    <trip depart="24.00" id="rs_c000_i000_289" from="-136721664" to="61282209#0" type="None" departLane="0" departSpeed="10.5456"/>
    <trip depart="25.00" id="rs_c000_i000_296" from="-122529110" to="29712378#0" type="None" departLane="0" departSpeed="7.7894"/>
    <trip depart="25.00" id="rs_c000_i000_303" from="56253839" to="417810022" type="None" departLane="0" departSpeed="10.2556"/>
    <trip depart="26.00" id="rs_c001_i000_42" from="43263108" to="722724110" type="None" departLane="0" departSpeed="7.0264"/>
    <trip depart="27.00" id="rs_c000_i001_35" from="-74011129#0" to="417810022" type="None" departLane="0" departSpeed="12.421"/>
    <trip depart="30.00" id="rs_c000_i000_347_part0" from="-24423625#2" to="24423625#4" type="None" departLane="0" departSpeed="7.7302"/>
    <trip depart="31.00" id="rs_c001_i000_12" from="-95937728#1" to="417810022" type="None" departLane="best" departSpeed="max"/>
    <trip depart="33.00" id="rs_c000_i000_381" from="-369150317#0" to="24429366" type="None" departLane="0" departSpeed="12.0821"/>
    <trip depart="33.00" id="rs_c000_i000_384" from="290255300" to="24436432" type="None" departLane="0" departSpeed="8.6965"/>
    <trip depart="34.00" id="rs_c001_i000_68" from="1080298604" to="24977182" type="None" departLane="0" departSpeed="9.2488"/>
    <trip depart="35.00" id="rs_c000_i000_411" from="35605874#2" to="-61984348" type="None" departLane="0" departSpeed="0.00"/>
    <trip depart="37.00" id="rs_c001_i000_78_part0" from="-4238018#0" to="-192596483" type="None" departLane="0" departSpeed="10.7478"/>
    <trip depart="38.00" id="rs_c000_i001_5_part1" from="-62106322#0" to="24436432" type="None" departLane="best" departSpeed="max"/>
    <trip depart="38.00" id="rs_c000_i000_437" from="-5067354#1" to="24429366" type="None" departLane="0" departSpeed="7.1988"/>
    <trip depart="40.00" id="rs_c000_i000_455" from="-84639229#0" to="26185946" type="None" departLane="0" departSpeed="11.8055"/>
    <trip depart="41.00" id="rs_c001_i000_84" from="4229427#1" to="34760652#1" type="None" departLane="0" departSpeed="12.4579"/>
    <trip depart="41.00" id="rs_c000_i000_475" from="10557712" to="1075684667" type="None" departLane="0" departSpeed="13.3233"/>
    <trip depart="43.00" id="rs_c001_i002_1" from="-122529102#1" to="417810022" type="None" departLane="0" departSpeed="7.7136"/>
    <trip depart="43.00" id="rs_c001_i000_90" from="-10426204#1" to="223401059#0" type="None" departLane="0" departSpeed="11.4289"/>
    <trip depart="43.00" id="rs_c000_i000_487" from="-95212556" to="61282209#0" type="None" departLane="0" departSpeed="8.5049"/>
    <trip depart="45.00" id="rs_c000_i000_504_part0" from="-116049444#0" to="-116049444#0" type="None" departLane="0" departSpeed="8.9398"/>
    <trip depart="47.00" id="rs_c000_i000_529" from="-122529096#6" to="223401059#0" type="None" departLane="0" departSpeed="8.8448"/>
    <trip depart="47.00" id="rs_c000_i000_533" from="-136721671" to="417810022" type="None" departLane="0" departSpeed="9.128"/>
    <trip depart="48.00" id="rs_c001_i000_104" from="-116049439#1" to="26185946" type="None" departLane="0" departSpeed="9.5337"/>
    <trip depart="49.00" id="rs_c000_i000_228_part1" from="-94087966" to="34760652#1" type="None" departLane="best" departSpeed="max"/>
    <trip depart="49.00" id="rs_c000_i000_554" from="-286243203#1" to="24405134" type="None" departLane="0" departSpeed="9.0705"/>
    <trip depart="50.00" id="rs_c000_i000_299" from="-95937728#1" to="417810022" type="None" departLane="best" departSpeed="max"/>
    <trip depart="50.00" id="rs_c000_i000_568" from="-50738089#0" to="223401059#0" type="None" departLane="0" departSpeed="7.6478"/>
    <trip depart="51.00" id="rs_c001_i000_35" from="51340803#1" to="223401059#0" type="None" departLane="best" departSpeed="max"/>
    <trip depart="51.00" id="rs_c000_i000_584" from="-61997814#0" to="30326599" type="None" departLane="0" departSpeed="8.7956"/>
    <trip depart="52.00" id="rs_c000_i000_598" from="-118869284#1" to="61282209#0" type="None" departLane="0" departSpeed="8.3392"/>
    <trip depart="53.00" id="rs_c000_i001_71_part0" from="-116049443#1" to="-116049443#1" type="None" departLane="0" departSpeed="8.1126"/>
    <trip depart="53.00" id="rs_c000_i000_610" from="-188890214" to="286404309" type="None" departLane="0" departSpeed="15.2429"/>
    <trip depart="53.00" id="rs_c000_i000_612" from="30326559" to="24429366" type="None" departLane="0" departSpeed="4.269"/>
    <trip depart="55.00" id="rs_c000_i000_653" from="-61566225#0" to="722724110" type="None" departLane="0" departSpeed="6.3075"/>
    <trip depart="56.00" id="rs_c000_i000_657" from="4273624" to="1075684667" type="None" departLane="0" departSpeed="8.2275"/>
    <trip depart="56.00" id="rs_c001_i000_122" from="188956290" to="41882139" type="None" departLane="0" departSpeed="7.7045"/>
    <trip depart="57.00" id="rs_c000_i000_50" from="212690608#1" to="417810022" type="None" departLane="best" departSpeed="max"/>
    <trip depart="57.00" id="rs_c001_i000_25" from="-116610243" to="24977182" type="None" departLane="best" departSpeed="max"/>
    <trip depart="57.00" id="rs_c000_i001_73" from="26369517" to="24977182" type="None" departLane="0" departSpeed="6.2675"/>
    <trip depart="57.00" id="rs_c000_i001_79" from="61496433" to="1075684667" type="None" departLane="0" departSpeed="7.3246"/>
    <trip depart="57.00" id="rs_c000_i001_81" from="-290255303#2" to="26185946" type="None" departLane="0" departSpeed="7.8344"/>
    <trip depart="57.00" id="rs_c000_i000_673" from="462046218" to="29712378#0" type="None" departLane="0" departSpeed="12.5332"/>
    <trip depart="57.00" id="rs_c000_i000_678" from="-84017983" to="24429366" type="None" departLane="0" departSpeed="10.7078"/>
    <trip depart="57.00" id="rs_c000_i000_681" from="24031456#4" to="417810022" type="None" departLane="0" departSpeed="8.4191"/>
    <trip depart="57.00" id="rs_c001_i000_125" from="-10502291#1" to="417810022" type="None" departLane="0" departSpeed="8.5258"/>
    <trip depart="58.00" id="rs_c000_i000_685" from="-118155456#2" to="24429366" type="None" departLane="0" departSpeed="8.5258"/>
    <trip depart="58.00" id="rs_c001_i000_127" from="-324738924" to="24977182" type="None" departLane="0" departSpeed="11.5122"/>
    <trip depart="59.00" id="rs_c000_i000_224" from="212690608#1" to="417810022" type="None" departLane="best" departSpeed="max"/>
    <trip depart="59.00" id="rs_c000_i000_703" from="118864079#5" to="24429366" type="None" departLane="0" departSpeed="8.8356"/>
    <trip depart="60.00" id="rs_c000_i000_711" from="-15242127#1" to="1075684667" type="None" departLane="0" departSpeed="12.3163"/>
    <trip depart="61.00" id="rs_c000_i000_231" from="362987788" to="26185946" type="None" departLane="best" departSpeed="max"/>
    <trip depart="61.00" id="rs_c000_i001_86" from="-212690606" to="417810022" type="None" departLane="0" departSpeed="8.0193"/>
    <trip depart="61.00" id="rs_c000_i000_716" from="-237367539" to="674486879#3" type="None" departLane="0" departSpeed="10.0112"/>
    <trip depart="61.00" id="rs_c000_i000_724" from="47089824" to="24429366" type="None" departLane="0" departSpeed="6.9131"/>
    <trip depart="64.00" id="rs_c001_i000_143" from="-4680630" to="61282209#0" type="None" departLane="0" departSpeed="13.9464"/>
    <trip depart="67.00" id="rs_c000_i000_444" from="51340803#1" to="26185946" type="None" departLane="best" departSpeed="max"/>
    <trip depart="67.00" id="rs_c000_i001_97" from="-84017983" to="417810022" type="None" departLane="0" departSpeed="12.3621"/>
    <trip depart="67.00" id="rs_c000_i000_782_part0" from="-118869284#0" to="-118869284#0" type="None" departLane="0" departSpeed="8.22"/>
    <trip depart="67.00" id="rs_c001_i000_149" from="-83488868" to="41882139" type="None" departLane="0" departSpeed="5.8345"/>
    <trip depart="69.00" id="rs_c001_i000_155" from="-147136167" to="223401059#0" type="None" departLane="0" departSpeed="11.5455"/>
    <trip depart="70.00" id="rs_c001_i000_156_part0" from="-32016029#2" to="34760652#1" type="None" departLane="0" departSpeed="2.9549"/>
    <trip depart="71.00" id="rs_c000_i001_6" from="-95937728#1" to="417810022" type="None" departLane="best" departSpeed="max"/>
    <trip depart="72.00" id="rs_c001_i000_2" from="30602645" to="417810022" type="None" departLane="best" departSpeed="max"/>
    <trip depart="72.00" id="rs_c000_i000_843" from="-14573382#2" to="417810022" type="None" departLane="0" departSpeed="11.0267"/>
    <trip depart="74.00" id="rs_c000_i000_864" from="-95100609" to="24436432" type="None" departLane="0" departSpeed="7.7527"/>
    <trip depart="74.00" id="rs_c000_i000_865" from="24487041" to="29712378#0" type="None" departLane="0" departSpeed="9.5968"/>
    <trip depart="75.00" id="rs_c000_i001_110" from="-328253309#0" to="24436432" type="None" departLane="0" departSpeed="19.4798"/>
    <trip depart="75.00" id="rs_c000_i000_879" from="-237367748#2" to="26185946" type="None" departLane="0" departSpeed="9.4004"/>
    <trip depart="76.00" id="rs_c000_i001_20" from="-211208696#0" to="24436432" type="None" departLane="best" departSpeed="max"/>
    <trip depart="76.00" id="rs_c000_i000_504_part1" from="116049443#1" to="417810022" type="None" departLane="best" departSpeed="max"/>
    <trip depart="76.00" id="rs_c000_i000_880" from="26040294#1" to="24436432" type="None" departLane="0" departSpeed="6.9595"/>
    <trip depart="76.00" id="rs_c000_i000_882" from="-10425858" to="24977182" type="None" departLane="0" departSpeed="11.7599"/>
    <trip depart="76.00" id="rs_c000_i000_885" from="117099159#2" to="417810022" type="None" departLane="0" departSpeed="1.019"/>
    <trip depart="76.00" id="rs_c001_i000_168" from="20179292#0" to="-125684096" type="None" departLane="0" departSpeed="9.542"/>
    <trip depart="77.00" id="rs_c001_i000_161" from="4226192#2" to="24977182" type="None" departLane="best" departSpeed="max"/>
    <trip depart="78.00" id="rs_c001_i000_46" from="-94087966" to="223401059#0" type="None" departLane="best" departSpeed="max"/>
    <trip depart="78.00" id="rs_c000_i000_890" from="122529096#1" to="26185946" type="None" departLane="0" departSpeed="6.9025"/>
    <trip depart="78.00" id="rs_c000_i001_113" from="8102541" to="24436432" type="None" departLane="0" departSpeed="9.482"/>
    <trip depart="78.00" id="rs_c000_i000_896" from="87397777" to="26185946" type="None" departLane="0" departSpeed="7.5178"/>
    <trip depart="78.00" id="rs_c000_i000_912" from="-96809683#1" to="223401059#0" type="None" departLane="0" departSpeed="2.829"/>
    <trip depart="79.00" id="rs_c000_i000_161" from="-211208696#0" to="26185946" type="None" departLane="best" departSpeed="max"/>
    <trip depart="79.00" id="rs_c000_i000_364" from="5241393" to="29712378#0" type="None" departLane="best" departSpeed="max"/>
    <trip depart="79.00" id="rs_c000_i000_918" from="-63322102#1" to="24436432" type="None" departLane="0" departSpeed="12.6721"/>
    <trip depart="80.00" id="rs_c000_i000_928" from="96915239#1" to="417810022" type="None" departLane="0" departSpeed="11.4077"/>
    <trip depart="81.00" id="rs_c000_i000_635" from="-95937728#1" to="417810022" type="None" departLane="best" departSpeed="max"/>
    <trip depart="81.00" id="rs_c000_i000_920" from="51340803#1" to="1075684667" type="None" departLane="best" departSpeed="max"/>
    <trip depart="82.00" id="rs_c000_i000_940" from="-5234278#1" to="417810022" type="None" departLane="0" departSpeed="11.7233"/>
    <trip depart="82.00" id="rs_c000_i000_947" from="-136721672" to="26185946" type="None" departLane="0" departSpeed="3.719"/>
    <trip depart="84.00" id="rs_c000_i001_120" from="-117654815#3" to="417810022" type="None" departLane="0" departSpeed="9.4304"/>
    <trip depart="84.00" id="rs_c000_i000_966" from="-23197959" to="26185946" type="None" departLane="0" departSpeed="0.00"/>
    <trip depart="85.00" id="rs_c000_i000_971" from="-188890214" to="24429366" type="None" departLane="0" departSpeed="13.0608"/>
    <trip depart="85.00" id="rs_c000_i000_975" from="62789947#2" to="24436432" type="None" departLane="0" departSpeed="10.6378"/>
    <trip depart="86.00" id="rs_c001_i000_69" from="301503168#1" to="41882139" type="None" departLane="best" departSpeed="max"/>
    <trip depart="86.00" id="rs_c000_i000_982" from="4353778#0" to="24436432" type="None" departLane="0" departSpeed="9.5237"/>
    <trip depart="86.00" id="rs_c000_i000_990" from="83163114#1" to="24436432" type="None" departLane="0" departSpeed="10.89"/>
    <trip depart="86.00" id="rs_c001_i000_186" from="-30141086#0" to="1075684667" type="None" departLane="0" departSpeed="11.6722"/>
    <trip depart="89.00" id="rs_c000_i000_1016" from="-24429416" to="24429366" type="None" departLane="0" departSpeed="4.5445"/>
    <trip depart="89.00" id="rs_c001_i000_194" from="26369585" to="-61997814#0" type="None" departLane="0" departSpeed="8.5324"/>
    <trip depart="91.00" id="rs_c001_i000_59" from="51340803#1" to="417810022" type="None" departLane="best" departSpeed="max"/>
    <trip depart="91.00" id="rs_c001_i000_67" from="-116610243" to="34760652#1" type="None" departLane="best" departSpeed="max"/>
    <trip depart="91.00" id="rs_c000_i001_131" from="183247520" to="417810022" type="None" departLane="0" departSpeed="8.0695"/>
    <trip depart="91.00" id="rs_c001_i000_197" from="-85562446#0" to="24436432" type="None" departLane="0" departSpeed="11.4266"/>
    <trip depart="92.00" id="rs_c000_i000_1050" from="-328266345" to="26185946" type="None" departLane="0" departSpeed="13.2149"/>
    <trip depart="92.00" id="rs_c000_i000_1060" from="-26127182#1" to="417810022" type="None" departLane="0" departSpeed="8.6215"/>
    <trip depart="93.00" id="rs_c001_i000_189" from="51340803#1" to="417810022" type="None" departLane="best" departSpeed="max"/>
    <trip depart="93.00" id="rs_c000_i001_133" from="4643592" to="24429366" type="None" departLane="0" departSpeed="7.028"/>
    <trip depart="96.00" id="rs_c000_i000_1095" from="15242129#1" to="24429366" type="None" departLane="0" departSpeed="12.0432"/>
    <trip depart="96.00" id="rs_c001_i000_205" from="-14573382#2" to="223401059#0" type="None" departLane="0" departSpeed="8.8769"/>
    <trip depart="98.00" id="rs_c000_i000_1131" from="-5234464" to="24977182" type="None" departLane="0" departSpeed="11.1322"/>
    <trip depart="98.00" id="rs_c000_i000_1132" from="-83497364" to="1075684667" type="None" departLane="0" departSpeed="11.7955"/>
    <trip depart="99.00" id="rs_c000_i000_532" from="116049443#1" to="417810022" type="None" departLane="best" departSpeed="max"/>
    <trip depart="100.00" id="rs_c000_i000_1143" from="84017451#0" to="29712378#0" type="None" departLane="0" departSpeed="6.7363"/>
    <trip depart="100.00" id="rs_c001_i000_213" from="-328813517" to="41882139" type="None" departLane="0" departSpeed="8.7765"/>
    <trip depart="101.00" id="rs_c000_i000_1157" from="137996244#0" to="24436432" type="None" departLane="0" departSpeed="7.088"/>
    <trip depart="103.00" id="rs_c001_i002_4" from="-4361529#0" to="30326599" type="None" departLane="0" departSpeed="7.9685"/>
    <trip depart="105.00" id="rs_c001_i000_103" from="-211208696#0" to="24977182" type="None" departLane="best" departSpeed="max"/>
    <trip depart="105.00" id="rs_c000_i000_1200" from="-301127377" to="24429366" type="None" departLane="0" departSpeed="10.1768"/>
    <trip depart="106.00" id="rs_c000_i001_157" from="-94087966" to="34760652#1" type="None" departLane="0" departSpeed="11.47"/>
    <trip depart="107.00" id="rs_c000_i000_1211" from="-286404309" to="417810022" type="None" departLane="0" departSpeed="8.3483"/>
    <trip depart="107.00" id="rs_c000_i000_1213" from="-34777320" to="24429366" type="None" departLane="0" departSpeed="10.1034"/>
    <trip depart="107.00" id="rs_c001_i000_228" from="83163097#1" to="24977182" type="None" departLane="0" departSpeed="8.0095"/>
    <trip depart="109.00" id="rs_c000_i001_146" from="51340803#1" to="83292791#1" type="None" departLane="best" departSpeed="max"/>
    <trip depart="109.00" id="rs_c000_i000_1227" from="26367998#1" to="24436432" type="None" departLane="0" departSpeed="8.2442"/>
    <trip depart="109.00" id="rs_c000_i000_1230" from="-235047961" to="26185946" type="None" departLane="0" departSpeed="9.5424"/>
    <trip depart="110.00" id="rs_c000_i000_1243_part0" from="-117099159#3" to="-117099159#0" type="None" departLane="0" departSpeed="1.729"/>
    <trip depart="111.00" id="rs_c000_i000_1260" from="-42902346#1" to="24429366" type="None" departLane="0" departSpeed="0.00"/>
    <trip depart="111.00" id="rs_c000_i002_25" from="503180223#1" to="24436432" type="None" departLane="0" departSpeed="7.2896"/>
    <trip depart="112.00" id="rs_c000_i000_21" from="30602645" to="26185946" type="None" departLane="best" departSpeed="max"/>
    <trip depart="112.00" id="rs_c000_i001_10" from="123429085#0" to="417810022" type="None" departLane="best" departSpeed="max"/>
    <trip depart="112.00" id="rs_c000_i000_782_part1" from="-95937728#1" to="24429366" type="None" departLane="best" departSpeed="max"/>
    <trip depart="113.00" id="rs_c000_i000_1283_part0" from="-76987970" to="29508109" type="None" departLane="0" departSpeed="8.26"/>
    <trip depart="114.00" id="rs_c000_i000_1298" from="-38807023" to="26185946" type="None" departLane="0" departSpeed="13.3177"/>
    <trip depart="115.00" id="rs_c000_i000_1308" from="50738088#0" to="24436432" type="None" departLane="0" departSpeed="0.00"/>
    <trip depart="116.00" id="rs_c001_i000_138" from="24528850" to="29712378#0" type="None" departLane="best" departSpeed="max"/>
    <trip depart="118.00" id="rs_c000_i000_1330" from="-87397780" to="1075684667" type="None" departLane="0" departSpeed="7.7569"/>
    <trip depart="118.00" id="rs_c000_i000_1338" from="-136721667" to="26185946" type="None" departLane="0" departSpeed="4.7545"/>
    <trip depart="119.00" id="rs_c001_i000_113" from="301503168#1" to="41882139" type="None" departLane="best" departSpeed="max"/>
    <trip depart="120.00" id="rs_c001_i000_97" from="223125596" to="1075684667" type="None" departLane="best" departSpeed="max"/>
    <trip depart="120.00" id="rs_c000_i000_1352" from="-117643624" to="24436432" type="None" departLane="0" departSpeed="11.3089"/>
    <trip depart="121.00" id="rs_c000_i000_1361" from="26369585" to="24436432" type="None" departLane="0" departSpeed="7.7836"/>
    <trip depart="121.00" id="rs_c000_i000_1366" from="890973612" to="-62115260" type="None" departLane="0" departSpeed="8.4966"/>
    <trip depart="121.00" id="rs_c001_i000_246" from="5091199" to="24429366" type="None" departLane="0" departSpeed="11.1178"/>
    <trip depart="122.00" id="rs_c000_i000_1376" from="42793238#0" to="26192899" type="None" departLane="0" departSpeed="0.00"/>
    <trip depart="123.00" id="rs_c000_i000_578" from="330229671" to="24436432" type="None" departLane="best" departSpeed="max"/>
    <trip depart="123.00" id="rs_c001_i000_252" from="126449231#0" to="24977182" type="None" departLane="0" departSpeed="9.213"/>
    <trip depart="124.00" id="rs_c000_i001_93" from="-95937728#1" to="29712378#0" type="None" departLane="best" departSpeed="max"/>
    <trip depart="124.00" id="rs_c000_i000_1409" from="-122529094#5" to="24429366" type="None" departLane="0" departSpeed="7.6528"/>
    <trip depart="124.00" id="rs_c000_i000_1413" from="4244655" to="24429366" type="None" departLane="0" departSpeed="8.1917"/>
    <trip depart="124.00" id="rs_c001_i000_253" from="310738357" to="1075684667" type="None" departLane="0" departSpeed="2.8309"/>
    <trip depart="125.00" id="rs_c000_i000_1419_part0" from="-116049444#0" to="-116049444#0" type="None" departLane="0" departSpeed="7.2188"/>
    <trip depart="125.00" id="rs_c000_i000_1423" from="5095190#0" to="24429366" type="None" departLane="0" departSpeed="8.1009"/>
    <trip depart="126.00" id="rs_c000_i000_508" from="-95937728#1" to="24429366" type="None" departLane="best" departSpeed="max"/>
    <trip depart="126.00" id="rs_c000_i000_1433_part0" from="-24049140#2" to="-24049140#2" type="None" departLane="0" departSpeed="8.2567"/>
    <trip depart="127.00" id="rs_c000_i000_1442" from="136864086" to="24436432" type="None" departLane="0" departSpeed="8.9806"/>
    <trip depart="128.00" id="rs_c000_i000_856" from="212690608#1" to="26185946" type="None" departLane="best" departSpeed="max"/>
    <trip depart="128.00" id="rs_c000_i001_193" from="-118155453" to="417810022" type="None" departLane="0" departSpeed="8.026"/>
    <trip depart="129.00" id="rs_c000_i001_179" from="-211120148" to="417810022" type="None" departLane="best" departSpeed="max"/>
    <trip depart="129.00" id="rs_c000_i000_1471" from="-39316011#1" to="24429366" type="None" departLane="0" departSpeed="3.9324"/>
    <trip depart="130.00" id="rs_c000_i000_1478" from="-9604697" to="29712378#0" type="None" departLane="0" departSpeed="8.23"/>
    <trip depart="131.00" id="rs_c000_i000_929" from="30602645" to="61282209#0" type="None" departLane="best" departSpeed="max"/>
    <trip depart="131.00" id="rs_c000_i000_1484" from="-61371680#0" to="41882139" type="None" departLane="0" departSpeed="6.769"/>
    <trip depart="131.00" id="rs_c000_i000_1487" from="4353778#0" to="24429366" type="None" departLane="0" departSpeed="8.7398"/>
    <trip depart="133.00" id="rs_c000_i002_6" from="-79690674#0" to="417810022" type="None" departLane="best" departSpeed="max"/>
    <trip depart="134.00" id="rs_c000_i000_1506_part0" from="125351165#1" to="125351165#1" type="None" departLane="0" departSpeed="8.8681"/>
    <trip depart="134.00" id="rs_c000_i000_1508" from="-117099153" to="-117099159#0" type="None" departLane="0" departSpeed="7.8752"/>
    <trip depart="136.00" id="rs_c000_i000_1112" from="-95937728#1" to="24405134" type="None" departLane="best" departSpeed="max"/>
    <trip depart="136.00" id="rs_c000_i000_1528" from="-10426171#1" to="10425893#2" type="None" departLane="0" departSpeed="9.4602"/>
    <trip depart="136.00" id="rs_c000_i001_200" from="10559201" to="417810022" type="None" departLane="0" departSpeed="12.531"/>
    <trip depart="136.00" id="rs_c001_i000_275" from="222307221#1" to="223401059#0" type="None" departLane="0" departSpeed="8.3458"/>
    <trip depart="137.00" id="rs_c000_i000_1534" from="-314424813" to="41882139" type="None" departLane="0" departSpeed="4.8935"/>
    <trip depart="140.00" id="rs_c001_i000_78_part1" from="123429085#0" to="30326599" type="None" departLane="best" departSpeed="max"/>
    <trip depart="140.00" id="rs_c001_i000_282" from="-83510232#0" to="61282209#0" type="None" departLane="0" departSpeed="10.6489"/>
    <trip depart="141.00" id="rs_c001_i000_9" from="123429085#0" to="722724110" type="None" departLane="best" departSpeed="max"/>
    <trip depart="141.00" id="rs_c000_i000_1064" from="-95937728#1" to="24429366" type="None" departLane="best" departSpeed="max"/>
    <trip depart="141.00" id="rs_c000_i000_1599" from="-63322106#0" to="26192899" type="None" departLane="0" departSpeed="11.4855"/>
    <trip depart="142.00" id="rs_c000_i000_1602" from="50738088#0" to="417810022" type="None" departLane="0" departSpeed="0.00"/>
    <trip depart="142.00" id="rs_c000_i000_1609" from="26085515#5" to="223401059#0" type="None" departLane="0" departSpeed="5.3195"/>
    <trip depart="143.00" id="rs_c000_i000_295" from="19782605" to="61282209#0" type="None" departLane="best" departSpeed="max"/>
    <trip depart="143.00" id="rs_c000_i000_1620" from="-14994763" to="116049788#1" type="None" departLane="0" departSpeed="11.7011"/>
    <trip depart="143.00" id="rs_c000_i000_1621" from="4492786" to="24429366" type="None" departLane="0" departSpeed="0.00"/>
    <trip depart="144.00" id="rs_c000_i000_1607" from="-24399325#0" to="61282209#0" type="None" departLane="0" departSpeed="9.0727"/>
    <trip depart="144.00" id="rs_c001_i000_293" from="-51722315#0" to="26192899" type="None" departLane="0" departSpeed="11.5811"/>
    <trip depart="145.00" id="rs_c000_i000_1638" from="285621683" to="29712378#0" type="None" departLane="0" departSpeed="8.5507"/>
    <trip depart="145.00" id="rs_c000_i000_1639" from="889565311#1" to="26192899" type="None" departLane="0" departSpeed="7.8444"/>
    <trip depart="145.00" id="rs_c000_i000_1641" from="-25498192" to="24429366" type="None" departLane="0" departSpeed="7.7111"/>
    <trip depart="145.00" id="rs_c000_i001_218" from="-83510232#0" to="24977182" type="None" departLane="0" departSpeed="10.8223"/>
    <trip depart="146.00" id="rs_c000_i000_1649" from="-328040089" to="5091199" type="None" departLane="0" departSpeed="7.7261"/>
    <trip depart="146.00" id="rs_c000_i000_1656_part0" from="-117625588" to="-117625588" type="None" departLane="0" departSpeed="9.9868"/>
    <trip depart="147.00" id="rs_c000_i000_7" from="30602645" to="26185946" type="None" departLane="best" departSpeed="max"/>
    <trip depart="147.00" id="rs_c000_i000_1626" from="-50738088#2" to="223401058#0" type="None" departLane="0" departSpeed="0.00"/>
    <trip depart="148.00" id="rs_c000_i000_122" from="-95937728#1" to="417810022" type="None" departLane="best" departSpeed="max"/>
    <trip depart="148.00" id="rs_c000_i000_1675" from="137996244#0" to="61282209#0" type="None" departLane="0" departSpeed="7.427"/>
    <trip depart="149.00" id="rs_c000_i000_253" from="-95937728#1" to="61282209#0" type="None" departLane="best" departSpeed="max"/>
    <trip depart="149.00" id="rs_c000_i001_219" from="30529010#1" to="116049788#1" type="None" departLane="0" departSpeed="11.0656"/>
    <trip depart="150.00" id="rs_c000_i000_28" from="19782605" to="26185946" type="None" departLane="best" departSpeed="max"/>
    <trip depart="150.00" id="rs_c001_i000_160" from="19782605" to="24977182" type="None" departLane="best" departSpeed="max"/>
    <trip depart="150.00" id="rs_c000_i000_1702" from="-217696289" to="417810022" type="None" departLane="0" departSpeed="9.1113"/>
    <trip depart="151.00" id="rs_c000_i000_59_part1" from="-95937728#1" to="24436432" type="None" departLane="best" departSpeed="max"/>
    <trip depart="151.00" id="rs_c000_i001_114" from="-211120148" to="223401059#0" type="None" departLane="best" departSpeed="max"/>
    <trip depart="151.00" id="rs_c000_i000_1713" from="-28918381#4" to="24405147" type="None" departLane="0" departSpeed="15.172"/>