<routes xmlns:xsi="http://www.w3.org/2001/XMLSchema-instance" xsi:noNamespaceSchemaLocation="http://sumo.dlr.de/xsd/routes_file.xsd">

    <vehicle id="rs_c006_i000_0" depart="0.60" departLane="best" departSpeed="max">
        <route edges="156341823-AddedOnRampEdge 156341823 125604900 29546527 -15806587#0 -39407601#0 -41926223#1 -41926223#0 41926222 41926349 -42803411#5 -42803411#4 -42803411#3 -42803411#1 -42803411#0 -227020603#1 -227020603#0 227020604 227696488#2" />
    </vehicle>
    <vehicle id="rs_c006_i000_1" depart="1.32" departLane="best" departSpeed="max">
        <route edges="38674844 25153039#0 25153041 40801556 25153043#0 30263381 26348751#0 142497101#0 34294088#0 78535795 -78535801#0 -78535798#1 -26349563#1 26349564#0 26349564#2 104147692 30605197#1 41882139 609759375 609759373#0 25523330 28717575 133104417#0 133104417#1 28617476#0 28617476#3 138063043#0 4227182#0 93672255#0 93672118#1 30967447#0 138281211#0 302380992" />
    </vehicle>
    <vehicle id="rs_c006_i000_2" depart="2.11" departLane="best" departSpeed="max">
        <route edges="-120134180#0 -978829558 -61352820 4882233 61352824 30681773 125420259 5061709 25656192 4376381 326205810 132044528 4375990 4375990-AddedOffRampEdge 5061722 132044536 132044552 4248708 4248708-AddedOffRampEdge 377252476 529393426 132031246-AddedOnRampEdge 132031246 529393428 132031219 35399454#0 35355947 27125765 27125766 132031234 43547478#0 43547481 43547483 43547485 132031251 4261915 30250831#0 35360077#0 30250832 30250833#0 30261506 30250834 30250835 38906266#0 128384445#0 43797008 208481843 208481842#1 208406245#0 35356598 43232484 208320472#0 208320461 231265364#0 208320466 131238562#0 4291291#0 29181823 -29181823" />
    </vehicle>
    <vehicle id="rs_c006_i000_3" depart="2.48" departLane="best" departSpeed="max">
        <route edges="6927021 -6927021 -6926949#0 -147633302#0 -642129592#1 -642129592#0 30471050 358661788 30471053 96718345 331975586#0 96718348#0 96718347 133113957#0 133113956 123429081#0 190980638#1 123429085#0 133114633 364198084#0 93670632 102332987#0 4236267#0 26344446 459818361 132795766 78714806 132817970 132817969 24436443 24436442 24436396 206174911 17244796 26187588 132816267 132816269 24404952 24404945 26185622 26185622-AddedOffRampEdge 4280386 4280386-AddedOffRampEdge 107348023 24429366 28771939 24429368 24429368-AddedOffRampEdge 24429364 201115549 133109576 30093953 30093951 133109577 86790295 86790295-AddedOffRampEdge 4494663 28820059 25826931 24528349 5054172 24430039 24430038 364135492 360736530 132809462 360689616 24675478 132809464 128767015 1004051160 145632443 177597566 46052579 40348180 45367848 34728589 364149911 30410497 34728594 34728594-AddedOffRampEdge 52009378 256925830 256925828 202926230 130675926 130675927 51572640#0 51572640#0-AddedOffRampEdge 4899297 258500721" />
    </vehicle>
    <vehicle id="rs_c006_i000_4" depart="3.23" departLane="best" departSpeed="max">
        <route edges="30926950#1 609622919#0 609622915#0 574874057#0 574874056#0 574874058 575234415 35779499 35779500 609622932 41880104 97918186 41880099 41880100 24336144 330016493 292953404 4236268 8136174#0 43136453 243683880 125684042#0 93670626 624417041 102332988#0 38455334 38455335 335091838 125565903 38455338 26368687 530282939 530282938 34905760#0 34905760#1 34905760#2 5234400 26368688 38455339 335091843#0" />
    </vehicle>
    <vehicle id="rs_c006_i000_5" depart="4.91" departLane="best" departSpeed="max">
        <route edges="138003096 23960394 30098520#0 -16627594 -55636272#1 4254464 24977246 37076908 236735662 269728338 36912210-AddedOnRampEdge 36912210 25153030 38674845 35355373 38674844 25153039#0 25153041 40801556 25153043#0 30263381 26348751#0 142497101#0 34294088#0 78535795 -78535801#0 -78535798#1 -26349563#1 26349564#0 26349564#2 104147692 668611390#0 30471451 722724110 125809074#0 125809093 -301852089 -96598498 96559139 -94124135 308586583#0 308586583#1 -191201120 -96202732 -96559142 1061462397#0" />
    </vehicle>
    <vehicle id="rs_c006_i000_6" depart="5.11" departLane="best" departSpeed="max">
        <route edges="35399455 132031230 26344370 132031239 132031239-AddedOffRampEdge 43134630 296083922#0 296083905#0 366727543#0 595417160 132031246-AddedOnRampEdge 132031246 529393428 132031219 35399454#0 35355947 27125765 27125766 132031234 43547478#0 43547481 43547483 43547485 132031251 4261915 30250831#0 35360077#0 30250832 30250833#0 30261506 27125470 159819762 30250964 26420761 514488464 35360074-AddedOnRampEdge 35360074 124880141 124880140 17430250 131269035 35360072 6795099 299068897 4882716 4882716-AddedOffRampEdge 999818753 617574273#0 630027935 630027934#0 630027934#1 1000746449#0 296377143 296377142 27126265#4 131269874 131269876#0 448340043 130340549#0 107356074 107356077#0 30620940#0 525248789 34142406 131698808 37724486#0 34142405 525248791#0" />
    </vehicle>
    <vehicle id="rs_c006_i000_7" depart="5.21" departLane="best" departSpeed="max">
        <route edges="60957461#0 -42560933#0 -61411500 74060661#2 42560931 30258688#0 222376758 34733041#3 73101428#1 62518517#1 30262883 41455327#0 37286066 42720514 34733047#0 58097860 29689100#0 58097865 30015227 146882665 30015228#0 22918327 74359026#3 29689099#0 28918340#0 61281941 30326720#0 30326720#1 30326722 28105135 38674850 148927038 138670798 38674848 24977186 28230831 36912211 36912210-AddedOnRampEdge 36912210 25153030 38674845 35355373 38674844 25153039#0 25153041 40801556 25153043#0 30263381 26348751#0 142497101#0 34294088#0 78535795 -78535801#0 -78535798#1 -26349563#1 26349564#0 26349564#2 104147692 30605197#1 41882139 609759375 609759373#0 25523330 87753974#1 -208561690 4485426#1 87753991#0" />
    </vehicle>
    <vehicle id="rs_c006_i000_8" depart="5.59" departLane="best" departSpeed="max">
        <route edges="30926514#0 35779499 35779500 609622932 41880104 97918186 41880099 41880100 24336144 330016493 292953404 4236268 8136174#0 43136453 243683880 125684042#0 93670626 624417041 102332988#0 38455341#0 243759680 190981790#0" />
    </vehicle>
    <vehicle id="rs_c006_i000_9" depart="6.77" departLane="best" departSpeed="max">
        <route edges="410000954 235669582 235669582-AddedOffRampEdge 4877205 160075314 287764297 30681775 61352822 287253795 30681771 4882233 61352824 30681773 125420259 5061709 25656192 4376381 326205810 132044528 4375990 4375990-AddedOffRampEdge 5061722 132044536 132044552 4248708 4248708-AddedOffRampEdge 377252476 529393426 132031246-AddedOnRampEdge 132031246 529393428 132031219 35399454#0 35355947 27125765 27125766 132031234 43547478#0 43547481 43547483 43547485 132031251 4261915 30250831#0 30140164 195721003#0 195721003#3 43548456 238421469 238421472 238421473 43548455 43548454 43548452 29509758 238421467 125418513#0 125418513#1 125418513#2 5012866 17428930" />
    </vehicle>
    <vehicle id="rs_c006_i000_10" depart="7.34" departLane="best" departSpeed="max">
        <route edges="40801557 25153048 28241504 34036603 25361758 148251974 35061524 35061793 32262396#0 32262396#1 32262396#2 25361736 35061798 25361737 301606219 25361739 38325513 35355373 38674844 25153039#0 25153041 40801556 25153043#0 30263381 26348751#0 142497101#0 34294088#0 78535795 -78535801#0 -78535798#1 -26349563#1 26349564#0 26349564#2 104147692 30605197#1 41882139 609759375 609759373#0 25523330 28717575 133104417#0 133104417#1 28617476#0 28617476#3 138063043#0 4492784#0 4492784#2 368303265#0 368303265#1 4217916 285102745 29971577#0 29971577#1 80242782#1 35359129 41882141 622564959#0 -76735936 -76735937 -103304620 -4217917#0 -18467158 -81178601 -76737122#0 -85564174#2 -85564174#0 -85564173 -76737123 4217935 96701428 -81178546 4217936 179043482#0 8135496#0 29971901 970619094#1 970619095#0 970619095#3 190934949 8135493 314694638 -35356131 -29753042#1 -29753042#0 387040997 683214432#0 683214432#1 387040995" />
    </vehicle>
    <vehicle id="rs_c006_i000_11" depart="8.86" departLane="best" departSpeed="max">
        <route edges="26295654#2 98158885#2 78343352#1 78049389 117654814#0 30098521#0 282875039 29498965 24407716 17221484 24429378 78650992 130637088 34733054#3 89224837 61279427#1 61279428 28918340#0 61281941 30326720#0 30326720#1 30326722 28105135 38674850 148927038 138670798 38674848 24977186 28230831 36912211 36912210-AddedOnRampEdge 36912210 25153030 38674845 35355373 38674844 25153039#0 25153041 40801556 25153043#0 30263381 26348751#0 142497101#0 34294088#0 78535795 -78535801#0 -78535798#1 -26349563#1 26349564#0 26349564#2 104147692 30605197#1 41882139 609759375 609759373#0 25523330 28717575 133104417#0 133104417#1 28617476#0 28617476#3 138063043#0 4492784#0 4492784#2 4444592#0 -4444592#0" />
    </vehicle>
    <vehicle id="rs_c006_i000_12" depart="10.26" departLane="best" departSpeed="max">
        <route edges="30289656#1 132932904 132932905#0 29508379 16816859 30289257 30289255 60706263 29508376 25561765 25561761 25561691 16817445 25497861 26186005 4258763 131271491 131271496 24429368 24429368-AddedOffRampEdge 24429364 201115549" />
    </vehicle>
    <vehicle id="rs_c006_i000_13" depart="12.86" departLane="best" departSpeed="max">
        <route edges="25562093 125420260 125604913 125604917 125604902 125604895 125604895-AddedOffRampEdge 15806578 39407601#1 24775011 125604925 125604923 125604919 125604919-AddedOffRampEdge 125604898#0 125604898#1-AddedOnRampEdge 125604898#1 125604922 125420261 4334735 4334735-AddedOffRampEdge" />
    </vehicle>
    <vehicle id="rs_c006_i000_14" depart="12.90" departLane="best" departSpeed="max">
        <route edges="427683759#1 703967796 703967795 703967794 703967771#0 -703967771#1 -703967794 703967781 -703967796 427683763 38438996#3 427683766 670988473 428894620 484230582#0 670988475#0 737881150#0 574874050#0 574874051#0 574874044#1 574874043#0 428898724 609622916#0 609622915#0 574874057#0 574874056#0 574874058 575234415 35779499 35779500 609622932 41880104 97918186 41880099 41880100 24336144 330016493 292953404 132795767" />
    </vehicle>
    <vehicle id="rs_c006_i000_15" depart="14.82" departLane="best" departSpeed="max">
        <route edges="142497094 -77608974#0 142497095 26348749 35873189 25153046#0 35391376 40801557 25153048 28241504 34036603 30690511 463124698 37076917 37076917-AddedOffRampEdge 8102841 160327699 28105134 28231152-AddedOnRampEdge 28231152 24977184 234899446 25600862 38674849 25600863 37972616 41242441#0 37523549#0 37523549#2 86714180#0 86714180#1 24424238#0 61282209#0 206355020 24445013 30933839#0 76043672#1 73990212#1 32873885#0 26379870#0 74054580#1 74054594#3 155986712#1 74055593#1 30258587 24454027#0 74059118#1 74059120 128491528 30262218 128491529 78663382 17101263 23207533#0 5053245#0 193116296 30261736 30261800#0 61981035#1 26428050#0 28302731 -62161908#1 -62161904#0 -61981034 61981034" />
    </vehicle>
    <vehicle id="rs_c006_i000_16" depart="15.14" departLane="best" departSpeed="max">
        <route edges="36912211 36912210-AddedOnRampEdge 36912210 25153030 38674845 35355373 38674844 25153039#0 25153041 40801556 25153043#0 30263381 26348751#0 142497101#0 34294088#0 78535795 -78535801#0 -78535798#1 -26349563#1 26349564#0 26349564#2 104147692 30605197#1 41882139 609759375 609759373#0 25523330 28717575 133104417#0 133104417#1 28617476#0 28617476#3 138063043#0 4492784#0 4492784#2 4444592#0 4444592#1" />
    </vehicle>
    <vehicle id="rs_c006_i000_17" depart="15.40" departLane="best" departSpeed="max">
        <route edges="23415675 100720307 132933320 132932901 132932902 25561765 25561761 25561691 16817445 25497861 26186005 4258763 131271491 131271496 24429368 24429368-AddedOffRampEdge 24429364 201115549 133109576 30093953 30093951 133109577 86790295 86790295-AddedOffRampEdge 4494663 26499900 30093945 17288506 28820131 28820135 28820269 28820271 2294284 17284763 28820309 30618512 30618512-AddedOffRampEdge 30618513 125483102 45378698 331368010 132802852 17280819 94541973 132802849 316612601 316612600 132797916 37287165 108955790 4680379 61044976 12384604" />
    </vehicle>
    <vehicle id="rs_c006_i000_18" depart="15.74" departLane="best" departSpeed="max">
        <route edges="38336405#1 -38336405#1 -38336405#0 35772871 35772872 42928295 8102366#0 130637088 34733054#3 89224837 61279427#1 61279428 28918340#0 61281941 30326720#0 30326720#1 30326722 28105135 38674850 148927038 138670798 38674848 24977186 28230831 36912211 36912210-AddedOnRampEdge 36912210 25153030 38674845 35355373 38674844 25153039#0 25153041 40801556 25153043#0 30263381 26348751#0 142497101#0 29688689#0 29688690 79851744#0 79851744#2 78535774 78535784 34178664 34178665#0 34178666 654803146 34178668 4220452#0 60104143 654803141 4220453" />
    </vehicle>
    <vehicle id="rs_c006_i000_19" depart="16.25" departLane="best" departSpeed="max">
        <route edges="4882716-AddedOffRampEdge 95948546 525361631 95948545 225662323 24428177 156934264 17435049 17435044 351247164 23228990 131271090 442600425 442600527 516552945 18380431 448194715 -31157337 31157337 12601208 34528000#0 26427990#0 448195165 37280272#0 165644610#1 37280273 35881396 129659799#3 516392071 24454027#0 74059118#1 74059120 128491528 30262218 128491529 78663382 17101263 23207533#0 29688714#0 55364246" />
    </vehicle>
    <vehicle id="rs_c006_i000_20" depart="16.71" departLane="best" departSpeed="max">
        <route edges="61720105 61720106 27222300 27222309#0 31779688 210192500 26342118 330229671 82502732 38674850 148927038 138670798 38674848 24977186 28230831 36912211 36912210-AddedOnRampEdge 36912210 25153030 38674845 35355373 38674844 25153039#0 25153041 40801556 25153043#0 30263381 26348751#0 142497101#0 29688689#0 29688690 79851744#0 79851744#2 78535774 78535784 34178664 34178665#0 34178666 654803146 34178668 654803144 237399745 321100881 321100880 126140564 30001653 126499972#2 126140557#0 707213207#0" />
    </vehicle>
    <vehicle id="rs_c006_i000_21" depart="17.19" departLane="best" departSpeed="max">
        <route edges="-136091638#1 -4685949 -305322857#0 305322862 305425249#0 305322869#0 -4343664 -993027799 27204688 94689758#0 34261692#0 34670544 27203189 25827075 133109579 133109581#0 4497475#0 160274071 27204014-AddedOnRampEdge 27204014 30093954 133109574 571601808 24429370 24429363 24429362 5237387 117654832#0 117654832#0-AddedOffRampEdge 4393082 76858561 60677078#0 232177529#0 232177529#1 -232177528 117654808 29498959#0 23960853#0 23960853#2 63322106#1 74011129#1 63322102#1 63322102#2 29508077 83292791#1 34733206 62106322#1 35722785#0 35722785#1 34733209 34733210 34733208 28476117 34151585 1005784973 -86529690 -285017098 285017100 352568716 285017096 285017094 205258661 -74310614 -55953532 -23119715" />
    </vehicle>
    <vehicle id="rs_c006_i000_22" depart="17.66" departLane="best" departSpeed="max">
        <route edges="135324331 41114585 135314685 41114583 135314699#0 135314699#1 135314689 135314693 135314687 116084425 35327606 35327612 135406798 53208765 135406804 118564437 166332250 231852898 35285466 35399450 35361663 196096277 35285470#0 35285470#1 118426660#1 127608295 35285474 125535357#0 127608301 17248865#1 35399452 160085351 35355947 27125765 27125766 132031234 43547478#0 43547481 43547483 43547485 132031251 4261915 30250831#0 35360077#0 30250832 30250833#0 30261506 30250834 30250835 435093791 38130053#0 892377263 38906269#0 435093792#0 35355823 65067496#0 131444792 128118906#0" />
    </vehicle>
    <vehicle id="rs_c006_i000_23" depart="17.84" departLane="best" departSpeed="max">
        <route edges="7918124#6 7918124#8 7918124#9 151875832#1 151875832#2 -129249166#1 125591002 125591004#1 125591013 82514691#0 47280325#0 47280325#2 116943431 116943403 116943423#0 35262688#0 211326965 211326963#0 211326963#1 211326961 -178199940 178199941 211326969#0 368532474#0 368532474#2 368532474#3 368532474#7 368532474#8 260692240#0 5231162#0 35371968 260692230 188639868 188639870 58187422 58187421 188639869 346917471#0 46481100 346918615 132855672#0 45409283 16610322 58651884 132855653 207297484 132814895" />
    </vehicle>
    <vehicle id="rs_c006_i000_24" depart="20.05" departLane="best" departSpeed="max">
        <route edges="48024320#0 30140968#0 219147914 143009625 206224066#0 29508381 132932903 29508377 30289255 60706263 29508376 25561765 25561761 25561691 16817445 25497861 26186005 4258763 131271491 131271496 24429368 24429368-AddedOffRampEdge" />
    </vehicle>
    <vehicle id="rs_c006_i000_25" depart="20.21" departLane="best" departSpeed="max">
        <route edges="5241393 5241393-AddedOffRampEdge 25555291 24404873 118864088 60684994 26187891 301372680#0 144246396#1 26187880#0 26187880#1 -57726376 -29498972#1 -84744395 -84744384#0 -84744387#0 -369178237#0 24399513 231380370 231380371 231380372 376517916" />
    </vehicle>
    <vehicle id="rs_c006_i000_26" depart="20.85" departLane="best" departSpeed="max">
        <route edges="24436437 607800580 5231289 60771161 50433683 23739392 -30140142 177861018 139124541#0 29712058 5231274 24436443 24436442 24436396 206174911 17244796 26187588 132816267 132816269 24404952 24404945 26185622 26185622-AddedOffRampEdge 24404948 287565433 17243585 26185946 25497858 25497859 365078231 5240346 26186313 751142298 132795017#1 582125942#0 582125942#1 582125942#2 132795016 -29508363 -4343796 152247469 152247471#0 -232003924 -117590607 -232003923 232003925 232003926 -183390263 232005654 -96917310 28867724 34151576 28867718 34734667 199982712#1 199982712#2 200003836#1" />
    </vehicle>
    <vehicle id="rs_c006_i000_27" depart="21.73" departLane="best" departSpeed="max">
        <route edges="426790110#1 158033990#1 623018551 158034032#1 892331575 892331574 582286858#0 582286858#1 980528934 -574637021 -574637022 980528922 234890737 -158034028 35703215 1075704928#2 51667065 51667067#0 37076908 236735662 269728338 36912210-AddedOnRampEdge 36912210 25153030 38674845 35355373 38674844 25153039#0 25153041 40801556 25153043#0 30263381 26348751#0 142497101#0 29688689#0 29688690 79851744#0 79851744#2 78535774 78535784 34178664 34178665#0 34178666 654803146 34178668 654803144 237399745 321100881 321100880 126140564 30001653 126499972#2 126140557#0 707213207#0 707213180#0 707213180#4 707213179 707213178#0 707213248 707213227#0 971831434" />
    </vehicle>
    <vehicle id="rs_c006_i000_28" depart="22.01" departLane="best" departSpeed="max">
        <route edges="41880099 41880100 24336144 330016493 292953404 4236268 8136174#0 43136453 243683880 125684042#0 93670626 624417041 102332988#0 38455341#0 243759680 190981790#0 93670633#1 20826774 190981787 126449241 34178668 4220452#0 60104143 654803141 4220453 30001659 126131450#0 243774930#0 94088835 188956289 104147692 30605197#1 41882139 609759375 609759373#0 25523330 28717575 133104417#0 133104417#1 28617476#0 28617476#3 138063043#0 4492784#0 4492784#2 368303265#0 368303265#1 4217916 285102745 29971577#0 29971577#1 80242782#1 35359129 -35359129" />
    </vehicle>
    <vehicle id="rs_c006_i000_29" depart="22.05" departLane="best" departSpeed="max">
        <route edges="38455335 335091838 125565903 38455338 26368687 530282939 530282938 34905760#0 34905760#1 34905760#2 5234400 26368688 38455339 335091843#0 38455341#0 243759680 190981790#0 93670633#1 20826774 190981787 126449241 34178668 4220452#0 60104143 654803140 34178669 654803138 35873188 85044863#0 188654001#0 30956035#0 26348749 35873189 35391373#0 29712332 26348750 28655825#0 29712378#0 77489204 77489212#0 30692830#0 50541464#0 50541462#0 50541459#0 50541460#0 740700745#0 740700745#1 4631278#0 4631278#1 -71322357#1" />
    </vehicle>
    <vehicle id="rs_c006_i000_30" depart="22.76" departLane="best" departSpeed="max">
        <route edges="484230582#0 670988475#0 737881150#0 574874050#0 574874051#0 574874044#1 574874043#0 428898724 609622916#0 609622915#0 574874057#0 574874056#0 574874058 575234415 35779499 35779500 609622932 41880104 97918186 41880099 41880100 24336144 330016493 292953404 4236268 8136174#0 102332458#2 427173722 4328304#0 60921784 78714802 417810022 60921782" />
    </vehicle>
    <vehicle id="rs_c006_i000_31" depart="23.69" departLane="best" departSpeed="max">
        <route edges="130188440 -65075525 65075526 -284131372 -35360594 4866057 284131363 130193136 17422993#0 17422993#2 53179480#0 4864832 17422982#1 34825498 65069441 34825495 94939080 94939074 34825494 34825500 160075308 6932479 4775950 65067498#0 53237892 65067497#0 131444792 128118906#0 35355824#0 67302248 38130866#0 34826491#0 38906264 128108930#0 15072835 30251151 30251148 30251145#0 30251142#0 219894905 26344393 26344391 132031235 35309409#0 132031223 132031242 4784866 35399453 127608299 17248865#1 35399452 160085351 35355947 27125765 27125766 132031234 17976826" />
    </vehicle>
    <vehicle id="rs_c006_i000_32" depart="24.42" departLane="best" departSpeed="max">
        <route edges="25828889 48422483 25701578 30293591 160278215 160278219 160278210 160278220#0 37833047#0 30293514#0 205315052 205315053 205315054 -44038490 183402013#0 -27289882 -265232860 -24373185 26344407 30290214 60776452 100720307 132933320 132932901 132932902 25561765 25561761 25561691 16817445 25497861 26186005 4258763 131271491 131271496 24429368 24429368-AddedOffRampEdge 24429364 201115549 133109576 30093953 30093951 133109577 86790295 86790295-AddedOffRampEdge 4494663 26499900 30093945 17288506" />
    </vehicle>
    <vehicle id="rs_c006_i000_33" depart="24.44" departLane="best" departSpeed="max">
        <route edges="-125351150 -30015753#0 -95937723 -95937728#3 -95937728#2 -95937728#1 -95937728#0 -118869285 26187755#0 144246396#1 118864086 60684996 26185622 26185622-AddedOffRampEdge 4280386 4280386-AddedOffRampEdge 107348023" />
    </vehicle>
    <vehicle id="rs_c006_i000_34" depart="26.25" departLane="best" departSpeed="max">
        <route edges="1080293510 -126709272#0 707213180#4 707213179 707213178#0 707213248 707213227#0 971831434 125858543 125858541#0 125858555#0 59740684 30140140 -4237993#1 -4237993#0 5234395#0 5234395#3 -26368727 4952767#0 102332986#0 363017594 125565909 102332984#0 102332991 5234157 132795766 78714806 132817970 132817969 24436443 24436442 24436396 206174911 17244796 26187588 132816267 132816269 24404952 118865759 58423620 58423646 17244015#1 60684995 30140146 4952731-AddedOnRampEdge 4952731 24404956 132816268 132816266" />
    </vehicle>
    <vehicle id="rs_c006_i000_35" depart="26.67" departLane="best" departSpeed="max">
        <route edges="58097860 24445013 30933839#0 76043672#1 73990212#1 32873885#0 54119871 101492761 332676699 368900600#2 28903699 61188121#1 28903494 30471397 448196774 -11102857 343853423 593108314 525116750 343906942 23228988 131445225 17435045 34185677 4261884 37432658 37432657 151481346#0 28902580#0 24428210 4273583 30528715 892377262 30528713 17434665#0 159306556 34587985 95948545" />
    </vehicle>
    <vehicle id="rs_c006_i000_36" depart="28.19" departLane="best" departSpeed="max">
        <route edges="703967792 703967791 703967790 -703967790 703967784 -703967792 703967783#0 -703967771#1 -703967794 703967781 -703967796 427683763 38438996#3 427683766 670988473 428894620 484230582#0 670988475#0 737881150#0 574874050#0 574874051#0 574874044#1 574874043#0 428898724 609622916#0 609622915#0 574874057#0 574874056#0 574874058 575234415 35779499 35779500 609622932 41880104 97918186 41880099 41880100 24336144 330016493 292953404 132795767 26344446 459818361 132795766 78714806 132817970 132817969 24436443 24436442 24436396 206174911 17244796 26187588 132816267 132816269 24404952 24404945 26185622 26185622-AddedOffRampEdge 4280386 4280386-AddedOffRampEdge 5241511 131271488 131271489 24429362 5237387 117654832#0 117654832#0-AddedOffRampEdge 117654832#1 117654829 24407716 17221484 24429378 78650992 130637088 34733054#3 89224837 61279427#1 61279428 28918340#0 61281941 30326720#0 30326720#1 30326722 28105135 38674850 148927038 138670798 38674848 24977186 28230831 36912211 36912210-AddedOnRampEdge 36912210 25153030 38674845 35355373 38674844 25153039#0 25153041 40801556" />
    </vehicle>
    <vehicle id="rs_c006_i000_37" depart="28.48" departLane="best" departSpeed="max">
        <route edges="37309094 285332786 285332785 123082711#2 95335960 95335962#0 95335962#1 37312183 207709520#0 207709520#1 -183394141 183394163#0 183394163#1 -5042530#0 96814114 96814116#0 430412976#0 183391990 30141804#0 385125306 48023990#0 29508706#0 30293514#0 205315052 205315053 205315054 -44038490 183402013#0 -27289882 -265232860 -24373185 26344407 30290214 60776452 100720307 132933320 132932901 132932902 25561765 25561761 25561691 16817445 25497861 26186005 4258763 131271491 131271496 24429368 24429368-AddedOffRampEdge 24429364 201115549 133109576 30093953 30093951 133109577 86790295 86790295-AddedOffRampEdge 4494663 28820059 25826931 24528349 5054172 24430039 24430038 364135492 360736530 132809462 360689616 24675478 132809464 128767015 1004051160 54355551 324292644 128767001#0 91250096 177146012#0 54181729#0 128767005 48862272 99000822 128766998 46052453 363144370 363144369 28819891 375720350 28819893" />
    </vehicle>
    <vehicle id="rs_c006_i000_38" depart="31.63" departLane="best" departSpeed="max">
        <route edges="46891326#0 -355237242#1 -355237242#0 -49704758 34030482#4 183232282 430412969#0 430412976#0 183391990 30141804#0 385125306 48023990#0 29508706#0 30293514#0 205315052 205315053 205315054 -44038490 183402013#0 -27289882 -265232860 -24373185 26344407 30290214 60776452 100720307 132933320 132932901 132932902 25561765 25561761 25561691 16817445 25497861 26186005 4258763 131271491 131271496 24429368 24429368-AddedOffRampEdge 24429364 201115549 133109576 30093953 30093951 133109577 86790295 86790295-AddedOffRampEdge 4494663 28820059 25826931 24528349 5054172 24430039 4492797 355575162 355575162-AddedOffRampEdge 360736533 318274451 384857029#0 316940736#0 316940736#1 242862393 316805122 5052990 197206187 197206189 28819925 28819926#0 34670537#0 86482620 -53818619 -43340621 43340621 53818619 5052980#0" />
    </vehicle>
    <vehicle id="rs_c006_i000_39" depart="32.36" departLane="best" departSpeed="max">
        <route edges="125684075 125684106 125683979 125683991 53277420 52692952#0 19782605 674486880#0 240100844#0 240100844#1 237368115 8135854 8162290 125858557#0 125858546#0 1013053459#0 30001657 24821689 237399750#3 161856847#0 161856844#0 188943669#0 30140137#0 30001658 654803142 60104143 654803140 34178669 654803138 35873188 85044863#0 188654001#0 30956035#0 26348749 35873189 25153046#0 35391376 40801557 25153048 28241504 34036603 30690511 463124698 37076917 37076917-AddedOffRampEdge 28549027 33826291 37076913 1075684664 1075684663#0 1075684663#1 1075704928#0 1075704928#1 1075704928#2 51667065 51667067#0" />
    </vehicle>
    <vehicle id="rs_c006_i000_40" depart="32.85" departLane="best" departSpeed="max">
        <route edges="-10405292 -10405223#0 25894166#2 211205575 125684101#0 12163379#0 237397873 224035478 130996784 154769763#0 19782605 674486880#0 240100844#0 240100844#1 237368115 24821265 530282931 125565916 530282943 4237994 30140140 -4237993#1 -4237993#0 5234395#0 5234395#3 -26368727 4952767#0 38455341#0 243759680" />
    </vehicle>
    <vehicle id="rs_c006_i000_41" depart="33.85" departLane="best" departSpeed="max">
        <route edges="4229408#1 -4229408#1 308586584#1 94124202 96559143 4229476 96202733 96598385#0 125809116 125809105 -94087966 -30471451 30605198 30471452#0 26349747#0 984011718 133104420#0 103302381 26349563#0 78535798#0 78535798#2 142497098 30956035#0 26348749 35873189 25153046#0 35391376 40801557 25153048 28241504 34036603 30690511 463124698 37076917 37076917-AddedOffRampEdge 8102841 160327699 28105134 28231152-AddedOnRampEdge 28231152 24977184 234899446 25600862 38674849 25600863 37972616 41242441#0 30326721 10357406#0 10357406#2 188891687 -61281861" />
    </vehicle>
    <vehicle id="rs_c006_i000_42" depart="34.59" departLane="best" departSpeed="max">
        <route edges="125604898#1-AddedOnRampEdge 125604898#1 125604922 125420261 4334735 4334735-AddedOffRampEdge 364180104 31799236 364182046 73995548 574631769 25562092 61362519 61362508#0 40587023 121495003 15227806 314174898 121494988 28786322 65412097 65412091 65412095 15063586#1 -15063586#1" />
    </vehicle>
    <vehicle id="rs_c006_i000_43" depart="35.20" departLane="best" departSpeed="max">
        <route edges="58097860 29689100#0 58097865 30015227 146882665 30015228#0 22918327 74359026#3 29689099#0 28918340#0 61281941 30326720#0 30326720#1 30326722 28105135 38674850 148927038 138670798 38674848 24977186 28230831 36912211 36912210-AddedOnRampEdge 36912210 25153030 38674845 35355373 38674844 25153039#0 25153041 40801556 25153043#0 30263381 26348751#0 142497101#0 29688689#0 29688690 79851744#0 79851744#2 78535774 78535784 34178664 34178665#0 34178666 654803145 126142082#0 80228049 217694415#0 4680620#1 126449197 328266345 328266344 126449314 210457775#0 -4244653 -644345097" />
    </vehicle>
    <vehicle id="rs_c006_i000_44" depart="35.42" departLane="best" departSpeed="max">
        <route edges="56701424-AddedOffRampEdge 25511653 18314420 24404779 24404873 118864088 60684994 26187891 301372680#0 144246396#1 118864086 60684996 26185622 26185622-AddedOffRampEdge 24404948 287565433 17243585 26185946 25497858" />
    </vehicle>
    <vehicle id="rs_c006_i000_45" depart="35.53" departLane="best" departSpeed="max">
        <route edges="5231274 24436443 24436442 24436396 206174911 17244796 26187588 132816267 132816269 24404952 24404945 26185622 26185622-AddedOffRampEdge 4280386 4280386-AddedOffRampEdge 5241511 131271488 131271489 24429362 5237387 117654832#0 117654832#0-AddedOffRampEdge 4393082 76858561 60677078#0 117656065#0 68415604 138003097 23960467#0 138003096 23960394 26378908#0 29288635 121411751 369180511#1 -63116620#0" />
    </vehicle>
    <vehicle id="rs_c006_i000_46" depart="36.02" departLane="best" departSpeed="max">