<?xml version="1.0" encoding="UTF-8"?>

<!-- generated on 2024-07-08 15:01:22.914166 by cutRoutes.py UNKNOWN
  options: -c smaller_areas/routes/configs/area2/disconnected/trips.cfg.xml
-->

<routes xmlns:xsi="http://www.w3.org/2001/XMLSchema-instance" xsi:noNamespaceSchemaLocation="http://sumo.dlr.de/xsd/routes_file.xsd">
    <trip depart="1.00" id="rs_c001_i000_0" from="321098632#1" to="24563993" type="None" departLane="free" departSpeed="max"/>
    <trip depart="1.00" id="rs_c000_i000_9" from="-30140997" to="133113961" type="None" departLane="free" departSpeed="max"/>
    <trip depart="3.00" id="rs_c000_i000_28" from="-10363555" to="25561760" type="None" departLane="free" departSpeed="max"/>
    <trip depart="4.00" id="rs_c000_i000_48" from="-38807023" to="133104417#1" type="None" departLane="free" departSpeed="max"/>
    <trip depart="4.00" id="rs_c000_i000_49" from="-26037066" to="330026282" type="None" departLane="free" departSpeed="max"/>
    <trip depart="4.00" id="rs_c000_i000_50" from="-333156359#0" to="330026282" type="None" departLane="free" departSpeed="max"/>
    <trip depart="5.00" id="rs_c001_i000_9" from="209234444" to="-94124135" type="None" departLane="free" departSpeed="max"/>
    <trip depart="5.00" id="rs_c000_i001_5" from="-48215535#0" to="24436432" type="None" departLane="free" departSpeed="max"/>
    <trip depart="5.00" id="rs_c000_i001_6" from="-125351162#1" to="330026282" type="None" departLane="free" departSpeed="max"/>
    <trip depart="5.00" id="rs_c000_i000_57" from="-126709272#1" to="25561760" type="None" departLane="free" departSpeed="max"/>
    <trip depart="5.00" id="rs_c000_i000_59" from="116049443#1" to="24436432" type="None" departLane="free" departSpeed="max"/>
    <trip depart="6.00" id="rs_c000_i000_66" from="-8597242#1" to="25561760" type="None" departLane="free" departSpeed="max"/>
    <trip depart="6.00" id="rs_c000_i000_72" from="96596615#1" to="272043198" type="None" departLane="free" departSpeed="max"/>
    <trip depart="7.00" id="rs_c000_i000_81" from="5231759" to="107348023" type="None" departLane="free" departSpeed="max"/>
    <trip depart="8.00" id="rs_c001_i000_12" from="-125351135" to="330026282" type="None" departLane="free" departSpeed="max"/>
    <trip depart="8.00" id="rs_c000_i000_105" from="-52673136" to="25561760" type="None" departLane="free" departSpeed="max"/>
    <trip depart="8.00" id="rs_c000_i000_98" from="-62116257" to="172879174" type="None" departLane="free" departSpeed="max"/>
    <trip depart="10.00" id="rs_c000_i001_10" from="-10420635#1" to="330026282" type="None" departLane="free" departSpeed="max"/>
    <trip depart="12.00" id="rs_c000_i000_136" from="223125596" to="330026282" type="None" departLane="free" departSpeed="max"/>
    <trip depart="12.00" id="rs_c000_i000_137" from="-217548735" to="24436432" type="None" departLane="free" departSpeed="max"/>
    <trip depart="12.00" id="rs_c000_i000_138" from="5067770#1" to="30135862" type="None" departLane="free" departSpeed="max"/>
    <trip depart="12.00" id="rs_c000_i002_1" from="-100073149" to="25561760" type="None" departLane="free" departSpeed="max"/>
    <trip depart="13.00" id="rs_c000_i000_148" from="-117654815#1" to="10420635#1" type="None" departLane="free" departSpeed="max"/>
    <trip depart="14.00" id="rs_c000_i000_151" from="222307221#0" to="133113961" type="None" departLane="free" departSpeed="max"/>
    <trip depart="14.00" id="rs_c000_i001_15" from="125828734" to="107348023" type="None" departLane="free" departSpeed="max"/>
    <trip depart="15.00" id="rs_c000_i000_161" from="-24466641" to="25561760" type="None" departLane="free" departSpeed="max"/>
    <trip depart="16.00" id="rs_c001_i000_25" from="-4233519" to="16070101#1" type="None" departLane="free" departSpeed="max"/>
    <trip depart="16.00" id="rs_c000_i000_186" from="-607687261#1" to="582286859#2" type="None" departLane="free" departSpeed="max"/>
    <trip depart="16.00" id="rs_c000_i001_20" from="4233684" to="24436432" type="None" departLane="free" departSpeed="max"/>
    <trip depart="17.00" id="rs_c000_i000_194" from="-137996247" to="24436432" type="None" departLane="free" departSpeed="max"/>
    <trip depart="17.00" id="rs_c000_i000_195" from="-71284395" to="24436432" type="None" departLane="free" departSpeed="max"/>
    <trip depart="17.00" id="rs_c000_i000_197" from="-212690606" to="24445013" type="None" departLane="free" departSpeed="max"/>
    <trip depart="17.00" id="rs_c000_i000_202" from="35722785#1" to="172879174" type="None" departLane="free" departSpeed="max"/>
    <trip depart="18.00" id="rs_c001_i000_29" from="-59683580#0" to="25561760" type="None" departLane="free" departSpeed="max"/>
    <trip depart="18.00" id="rs_c001_i000_31" from="-63134322#1" to="25561760" type="None" departLane="free" departSpeed="max"/>
    <trip depart="18.00" id="rs_c000_i000_209" from="26959985" to="25561760" type="None" departLane="free" departSpeed="max"/>
    <trip depart="19.00" id="rs_c000_i000_224" from="10516147#0" to="330026282" type="None" departLane="free" departSpeed="max"/>
    <trip depart="19.00" id="rs_c000_i000_228" from="-94107509" to="172879174" type="None" departLane="free" departSpeed="max"/>
    <trip depart="19.00" id="rs_c000_i000_231" from="77606148#1" to="25561760" type="None" departLane="free" departSpeed="max"/>
    <trip depart="20.00" id="rs_c000_i000_245" from="-61367432" to="272043198" type="None" departLane="free" departSpeed="max"/>
    <trip depart="21.00" id="rs_c001_i000_35" from="-10426053#1" to="133113961" type="None" departLane="free" departSpeed="max"/>
    <trip depart="21.00" id="rs_c000_i000_247_part0" from="80323717#1" to="30471050" type="None" departLane="free" departSpeed="max"/>
    <trip depart="22.00" id="rs_c000_i000_260" from="-45578880" to="24436432" type="None" departLane="free" departSpeed="max"/>
    <trip depart="23.00" id="rs_c000_i000_277" from="-122529098#1" to="107348023" type="None" departLane="free" departSpeed="max"/>
    <trip depart="24.00" id="rs_c001_i001_7" from="219528064" to="24563993" type="None" departLane="free" departSpeed="max"/>
    <trip depart="24.00" id="rs_c000_i001_32" from="-117643614#1" to="24404915" type="None" departLane="free" departSpeed="max"/>
    <trip depart="24.00" id="rs_c000_i000_289" from="-136721664" to="24445013" type="None" departLane="free" departSpeed="max"/>
    <trip depart="25.00" id="rs_c000_i000_295" from="-367319945#0" to="24445013" type="None" departLane="free" departSpeed="max"/>
    <trip depart="25.00" id="rs_c000_i000_296" from="-122529110" to="30692830#0" type="None" departLane="free" departSpeed="max"/>
    <trip depart="25.00" id="rs_c000_i000_299" from="-125351135" to="330026282" type="None" departLane="free" departSpeed="max"/>
    <trip depart="25.00" id="rs_c000_i000_303" from="56253839" to="330026282" type="None" departLane="free" departSpeed="max"/>
    <trip depart="26.00" id="rs_c000_i000_139" from="-212694593#3" to="24436432" type="None" departLane="free" departSpeed="max"/>
    <trip depart="26.00" id="rs_c001_i000_42" from="43263108" to="-94124135" type="None" departLane="free" departSpeed="max"/>
    <trip depart="27.00" id="rs_c000_i001_35" from="-74011129#0" to="330026282" type="None" departLane="free" departSpeed="max"/>
    <trip depart="29.00" id="rs_c001_i000_49" from="4246321" to="16070101#1" type="None" departLane="free" departSpeed="max"/>
    <trip depart="30.00" id="rs_c001_i000_51" from="-324547492" to="330026282" type="None" departLane="free" departSpeed="max"/>
    <trip depart="30.00" id="rs_c000_i000_347_part0" from="-24423625#2" to="24423625#2" type="None" departLane="free" departSpeed="max"/>
    <trip depart="32.00" id="rs_c000_i000_374" from="-100018570#0" to="172879174" type="None" departLane="free" departSpeed="max"/>
    <trip depart="32.00" id="rs_c000_i000_376" from="-129785060" to="24436432" type="None" departLane="free" departSpeed="max"/>
    <trip depart="33.00" id="rs_c001_i000_59" from="-332253063#0" to="330026282" type="None" departLane="free" departSpeed="max"/>
    <trip depart="33.00" id="rs_c000_i000_381" from="-369150317#0" to="107348023" type="None" departLane="free" departSpeed="max"/>
    <trip depart="33.00" id="rs_c000_i000_384" from="290255300" to="24436432" type="None" departLane="free" departSpeed="max"/>
    <trip depart="34.00" id="rs_c001_i000_67" from="-8135855" to="-886306666" type="None" departLane="free" departSpeed="max"/>
    <trip depart="34.00" id="rs_c001_i000_68" from="1080298604" to="16070101#1" type="None" departLane="free" departSpeed="max"/>
    <trip depart="35.00" id="rs_c001_i000_69" from="-35155912" to="272043198" type="None" departLane="free" departSpeed="max"/>
    <trip depart="35.00" id="rs_c000_i000_411" from="35605874#2" to="172879174" type="None" departLane="free" departSpeed="max"/>
    <trip depart="36.00" id="rs_c001_i000_46" from="94124202" to="133113961" type="None" departLane="free" departSpeed="max"/>
    <trip depart="36.00" id="rs_c000_i000_416" from="-39162601" to="330026282" type="None" departLane="free" departSpeed="max"/>
    <trip depart="37.00" id="rs_c001_i000_78" from="-4238018#0" to="30135862" type="None" departLane="free" departSpeed="max"/>
    <trip depart="37.00" id="rs_c001_i000_79" from="4238028#0" to="330026282" type="None" departLane="free" departSpeed="max"/>
    <trip depart="38.00" id="rs_c000_i000_437" from="-5067354#1" to="24404915" type="None" departLane="free" departSpeed="max"/>
    <trip depart="38.00" id="rs_c000_i000_444" from="-10426053#1" to="25561760" type="None" departLane="free" departSpeed="max"/>
    <trip depart="39.00" id="rs_c001_i000_81" from="-75732915" to="272043198" type="None" departLane="free" departSpeed="max"/>
    <trip depart="40.00" id="rs_c000_i000_455" from="-84639229#0" to="25561760" type="None" departLane="free" departSpeed="max"/>
    <trip depart="41.00" id="rs_c001_i000_84" from="4229427#1" to="58768886#0" type="None" departLane="free" departSpeed="max"/>
    <trip depart="41.00" id="rs_c000_i000_475" from="10557712" to="582286859#2" type="None" departLane="free" departSpeed="max"/>
    <trip depart="41.00" id="rs_c000_i000_476" from="-579053759" to="172879174" type="None" departLane="free" departSpeed="max"/>
    <trip depart="42.00" id="rs_c001_i000_87" from="-72728809" to="-211042302#0" type="None" departLane="free" departSpeed="max"/>
    <trip depart="43.00" id="rs_c001_i002_1" from="-122529102#1" to="330026282" type="None" departLane="free" departSpeed="max"/>
    <trip depart="43.00" id="rs_c001_i000_90" from="-10426204#1" to="133113961" type="None" departLane="free" departSpeed="max"/>
    <trip depart="43.00" id="rs_c000_i002_6" from="5137912" to="330026282" type="None" departLane="free" departSpeed="max"/>
    <trip depart="43.00" id="rs_c000_i000_487" from="-95212556" to="-35080650#0" type="None" departLane="free" departSpeed="max"/>
    <trip depart="43.00" id="rs_c000_i000_493_part0" from="-427002134" to="-427002134" type="None" departLane="free" departSpeed="max"/>
    <trip depart="45.00" id="rs_c001_i000_97" from="145737637#0" to="582286859#2" type="None" departLane="free" departSpeed="max"/>
    <trip depart="45.00" id="rs_c000_i000_504" from="-116049444#0" to="330026282" type="None" departLane="free" departSpeed="max"/>
    <trip depart="45.00" id="rs_c000_i000_508" from="-24423403#10" to="107348023" type="None" departLane="free" departSpeed="max"/>
    <trip depart="46.00" id="rs_c000_i000_490" from="6929234#0" to="330026282" type="None" departLane="free" departSpeed="max"/>
    <trip depart="47.00" id="rs_c000_i000_529" from="-122529096#6" to="133113961" type="None" departLane="free" departSpeed="max"/>
    <trip depart="47.00" id="rs_c000_i000_533" from="-136721671" to="330026282" type="None" departLane="free" departSpeed="max"/>
    <trip depart="47.00" id="rs_c001_i000_103" from="703967713" to="24563993" type="None" departLane="free" departSpeed="max"/>
    <trip depart="48.00" id="rs_c001_i000_104" from="-116049439#1" to="25561760" type="None" departLane="free" departSpeed="max"/>
    <trip depart="49.00" id="rs_c000_i000_554" from="-286243203#1" to="172879174" type="None" departLane="free" departSpeed="max"/>
    <trip depart="50.00" id="rs_c000_i000_568" from="-50738089#0" to="133113961" type="None" departLane="free" departSpeed="max"/>
    <trip depart="51.00" id="rs_c000_i000_578" from="695626572" to="24436432" type="None" departLane="free" departSpeed="max"/>
    <trip depart="51.00" id="rs_c000_i000_584" from="-61997814#0" to="172879174" type="None" departLane="free" departSpeed="max"/>
    <trip depart="52.00" id="rs_c000_i000_377" from="17101263" to="172879174" type="None" departLane="free" departSpeed="max"/>
    <trip depart="52.00" id="rs_c000_i000_598" from="-118869284#1" to="24445013" type="None" departLane="free" departSpeed="max"/>
    <trip depart="52.00" id="rs_c001_i000_113" from="138630786" to="272043198" type="None" departLane="free" departSpeed="max"/>
    <trip depart="53.00" id="rs_c000_i001_71" from="-116049443#1" to="330026282" type="None" departLane="free" departSpeed="max"/>
    <trip depart="53.00" id="rs_c000_i000_610" from="-188890214" to="286404309" type="None" departLane="free" departSpeed="max"/>
    <trip depart="53.00" id="rs_c000_i000_612" from="30326559" to="24404915" type="None" departLane="free" departSpeed="max"/>
    <trip depart="54.00" id="rs_c000_i000_635" from="122529104#4" to="330026282" type="None" departLane="free" departSpeed="max"/>
    <trip depart="55.00" id="rs_c000_i000_653" from="-61566225#0" to="-94124135" type="None" departLane="free" departSpeed="max"/>
    <trip depart="56.00" id="rs_c000_i000_657" from="4273624" to="582286859#2" type="None" departLane="free" departSpeed="max"/>
    <trip depart="56.00" id="rs_c000_i000_659_part0" from="285875329#0" to="4691969#0" type="None" departLane="free" departSpeed="max"/>
    <trip depart="56.00" id="rs_c000_i000_665" from="190721768#1" to="330026282" type="None" departLane="free" departSpeed="max"/>
    <trip depart="56.00" id="rs_c001_i000_122" from="188956290" to="272043198" type="None" departLane="free" departSpeed="max"/>
    <trip depart="57.00" id="rs_c000_i001_73" from="26369517" to="16070101#1" type="None" departLane="free" departSpeed="max"/>
    <trip depart="57.00" id="rs_c000_i001_79" from="61496433" to="582286859#2" type="None" departLane="free" departSpeed="max"/>
    <trip depart="57.00" id="rs_c000_i001_81" from="-290255303#2" to="25561760" type="None" departLane="free" departSpeed="max"/>
    <trip depart="57.00" id="rs_c000_i000_672" from="209237468" to="25561760" type="None" departLane="free" departSpeed="max"/>
    <trip depart="57.00" id="rs_c000_i000_673" from="462046218" to="30692830#0" type="None" departLane="free" departSpeed="max"/>
    <trip depart="57.00" id="rs_c000_i000_678" from="-84017983" to="107348023" type="None" departLane="free" departSpeed="max"/>
    <trip depart="57.00" id="rs_c000_i000_681" from="24031456#4" to="330026282" type="None" departLane="free" departSpeed="max"/>
    <trip depart="57.00" id="rs_c001_i000_125" from="-10502291#1" to="330026282" type="None" departLane="free" departSpeed="max"/>
    <trip depart="58.00" id="rs_c000_i000_685" from="-118155456#2" to="107348023" type="None" departLane="free" departSpeed="max"/>
    <trip depart="58.00" id="rs_c001_i000_127" from="-324738924" to="16070101#1" type="None" departLane="free" departSpeed="max"/>
    <trip depart="59.00" id="rs_c000_i001_84" from="130735705" to="330026282" type="None" departLane="free" departSpeed="max"/>
    <trip depart="59.00" id="rs_c000_i000_703" from="118864079#5" to="107348023" type="None" departLane="free" departSpeed="max"/>
    <trip depart="60.00" id="rs_c000_i000_711" from="-15242127#1" to="582286859#2" type="None" departLane="free" departSpeed="max"/>
    <trip depart="60.00" id="rs_c001_i001_17" from="8597240" to="24563993" type="None" departLane="free" departSpeed="max"/>
    <trip depart="61.00" id="rs_c000_i000_593" from="-63540897" to="24404915" type="None" departLane="free" departSpeed="max"/>
    <trip depart="61.00" id="rs_c000_i001_86" from="-212690606" to="330026282" type="None" departLane="free" departSpeed="max"/>
    <trip depart="61.00" id="rs_c000_i000_716" from="-237367539" to="237496662" type="None" departLane="free" departSpeed="max"/>
    <trip depart="61.00" id="rs_c000_i000_724" from="47089824" to="107348023" type="None" departLane="free" departSpeed="max"/>
    <trip depart="61.00" id="rs_c001_i000_132" from="-100018567" to="-94124135" type="None" departLane="free" departSpeed="max"/>
    <trip depart="62.00" id="rs_c001_i000_28" from="96718345" to="582286859#2" type="None" departLane="free" departSpeed="max"/>
    <trip depart="63.00" id="rs_c001_i000_107" from="133113962#0" to="16070101#1" type="None" departLane="free" departSpeed="max"/>
    <trip depart="63.00" id="rs_c000_i002_10" from="61669586" to="330026282" type="None" departLane="free" departSpeed="max"/>
    <trip depart="63.00" id="rs_c001_i000_138" from="-5096970" to="30692830#0" type="None" departLane="free" departSpeed="max"/>
    <trip depart="64.00" id="rs_c001_i000_143" from="-4680630" to="61102971#1" type="None" departLane="free" departSpeed="max"/>
    <trip depart="65.00" id="rs_c000_i000_247_part1" from="96718345" to="16070101#1" type="None" departLane="free" departSpeed="max"/>
    <trip depart="65.00" id="rs_c000_i000_763" from="-4872089" to="24404915" type="None" departLane="free" departSpeed="max"/>
    <trip depart="65.00" id="rs_c001_i000_145" from="-203752765" to="-776693806" type="None" departLane="free" departSpeed="max"/>
    <trip depart="66.00" id="rs_c001_i000_146_part0" from="48126141" to="703967781" type="None" departLane="free" departSpeed="max"/>
    <trip depart="67.00" id="rs_c000_i001_97" from="-84017983" to="330026282" type="None" departLane="free" departSpeed="max"/>
    <trip depart="67.00" id="rs_c000_i000_782" from="-118869284#0" to="107348023" type="None" departLane="free" departSpeed="max"/>
    <trip depart="67.00" id="rs_c001_i000_149" from="-83488868" to="272043198" type="None" departLane="free" departSpeed="max"/>
    <trip depart="67.00" id="rs_c001_i000_151" from="4238091#1" to="16070101#1" type="None" departLane="free" departSpeed="max"/>
    <trip depart="69.00" id="rs_c000_i000_810" from="364419352#0" to="330026282" type="None" departLane="free" departSpeed="max"/>
    <trip depart="69.00" id="rs_c001_i000_155" from="-147136167" to="133113961" type="None" departLane="free" departSpeed="max"/>
    <trip depart="70.00" id="rs_c001_i000_156" from="-32016029#2" to="133113961" type="None" departLane="free" departSpeed="max"/>
    <trip depart="72.00" id="rs_c001_i000_2" from="30602645" to="330026282" type="None" departLane="free" departSpeed="max"/>
    <trip depart="72.00" id="rs_c000_i000_843" from="-14573382#2" to="330026282" type="None" departLane="free" departSpeed="max"/>
    <trip depart="73.00" id="rs_c000_i001_104" from="71284390#0" to="172879174" type="None" departLane="free" departSpeed="max"/>
    <trip depart="73.00" id="rs_c000_i001_105" from="-10516147#2" to="-124537762" type="None" departLane="free" departSpeed="max"/>
    <trip depart="73.00" id="rs_c000_i000_856" from="333338273" to="25561760" type="None" departLane="free" departSpeed="max"/>
    <trip depart="73.00" id="rs_c001_i000_160" from="-10405223#0" to="16070101#1" type="None" departLane="free" departSpeed="max"/>
    <trip depart="74.00" id="rs_c000_i000_864" from="-95100609" to="24436432" type="None" departLane="free" departSpeed="max"/>
    <trip depart="74.00" id="rs_c000_i000_865" from="24487041" to="30692830#0" type="None" departLane="free" departSpeed="max"/>
    <trip depart="74.00" id="rs_c000_i000_866" from="100016823#2" to="25561760" type="None" departLane="free" departSpeed="max"/>
    <trip depart="74.00" id="rs_c001_i000_161" from="-4226192#0" to="27959029#2" type="None" departLane="free" departSpeed="max"/>
    <trip depart="75.00" id="rs_c000_i001_110" from="-328253309#0" to="24436432" type="None" departLane="free" departSpeed="max"/>
    <trip depart="75.00" id="rs_c000_i000_879" from="-237367748#2" to="25561760" type="None" departLane="free" departSpeed="max"/>
    <trip depart="75.00" id="rs_c001_i000_164" from="-10436546" to="330026282" type="None" departLane="free" departSpeed="max"/>
    <trip depart="76.00" id="rs_c000_i000_242" from="80305904" to="24563993" type="None" departLane="free" departSpeed="max"/>
    <trip depart="76.00" id="rs_c000_i000_880" from="26040294#1" to="24436432" type="None" departLane="free" departSpeed="max"/>
    <trip depart="76.00" id="rs_c000_i000_882" from="-10425858" to="24563993" type="None" departLane="free" departSpeed="max"/>
    <trip depart="76.00" id="rs_c000_i000_885" from="117099159#2" to="330026282" type="None" departLane="free" departSpeed="max"/>
    <trip depart="76.00" id="rs_c001_i000_168" from="20179292#0" to="237496662" type="None" departLane="free" departSpeed="max"/>
    <trip depart="78.00" id="rs_c000_i000_890" from="122529096#1" to="25561760" type="None" departLane="free" departSpeed="max"/>
    <trip depart="78.00" id="rs_c000_i001_113" from="8102541" to="24436432" type="None" departLane="free" departSpeed="max"/>
    <trip depart="78.00" id="rs_c000_i001_114" from="-211120149" to="-358700463" type="None" departLane="free" departSpeed="max"/>
    <trip depart="78.00" id="rs_c000_i000_895" from="5137917" to="24436432" type="None" departLane="free" departSpeed="max"/>
    <trip depart="78.00" id="rs_c000_i000_896" from="87397777" to="25561760" type="None" departLane="free" departSpeed="max"/>
    <trip depart="78.00" id="rs_c000_i000_912" from="-96809683#1" to="-358700463" type="None" departLane="free" departSpeed="max"/>
    <trip depart="79.00" id="rs_c000_i000_918" from="-63322102#1" to="24436432" type="None" departLane="free" departSpeed="max"/>
    <trip depart="79.00" id="rs_c000_i000_920" from="51340803#0" to="582286859#2" type="None" departLane="free" departSpeed="max"/>
    <trip depart="80.00" id="rs_c000_i000_928" from="96915239#1" to="330026282" type="None" departLane="free" departSpeed="max"/>
    <trip depart="80.00" id="rs_c001_i001_22" from="-62419359#0" to="441826617" type="None" departLane="free" departSpeed="max"/>
    <trip depart="82.00" id="rs_c000_i001_118" from="-126906449" to="30135862" type="None" departLane="free" departSpeed="max"/>
    <trip depart="82.00" id="rs_c000_i000_940" from="-5234278#1" to="330026282" type="None" departLane="free" departSpeed="max"/>
    <trip depart="82.00" id="rs_c000_i000_941" from="-5065866#1" to="30135862" type="None" departLane="free" departSpeed="max"/>
    <trip depart="82.00" id="rs_c000_i000_947" from="-136721672" to="25561760" type="None" departLane="free" departSpeed="max"/>
    <trip depart="83.00" id="rs_c000_i000_532" from="-212694593#3" to="330026282" type="None" departLane="free" departSpeed="max"/>
    <trip depart="84.00" id="rs_c000_i001_120" from="-117654815#3" to="330026282" type="None" departLane="free" departSpeed="max"/>
    <trip depart="84.00" id="rs_c000_i000_966" from="-23197959" to="25561760" type="None" departLane="free" departSpeed="max"/>
    <trip depart="85.00" id="rs_c000_i000_971" from="-188890214" to="107348023" type="None" departLane="free" departSpeed="max"/>
    <trip depart="85.00" id="rs_c000_i000_975" from="62789947#2" to="24436432" type="None" departLane="free" departSpeed="max"/>
    <trip depart="86.00" id="rs_c000_i000_982" from="4353778#0" to="24436432" type="None" departLane="free" departSpeed="max"/>
    <trip depart="86.00" id="rs_c000_i000_990" from="83163114#1" to="24436432" type="None" departLane="free" departSpeed="max"/>
    <trip depart="86.00" id="rs_c001_i000_186" from="-30141086#0" to="582286859#2" type="None" departLane="free" departSpeed="max"/>
    <trip depart="86.00" id="rs_c001_i000_187" from="-62064349" to="-94124135" type="None" departLane="free" departSpeed="max"/>
    <trip depart="87.00" id="rs_c000_i000_364" from="5241393-AddedOffRampEdge" to="30692830#0" type="None" departLane="free" departSpeed="max"/>
    <trip depart="87.00" id="rs_c000_i000_1004" from="117589024" to="25561760" type="None" departLane="free" departSpeed="max"/>
    <trip depart="87.00" id="rs_c001_i000_190" from="-62162661" to="172879174" type="None" departLane="free" departSpeed="max"/>
    <trip depart="89.00" id="rs_c000_i002_4" from="96718345" to="330026282" type="None" departLane="free" departSpeed="max"/>
    <trip depart="89.00" id="rs_c000_i000_1016" from="-24429416" to="24404915" type="None" departLane="free" departSpeed="max"/>
    <trip depart="89.00" id="rs_c000_i000_1020" from="358697049#1" to="330026282" type="None" departLane="free" departSpeed="max"/>
    <trip depart="89.00" id="rs_c000_i000_1021" from="24423403#0" to="330026282" type="None" departLane="free" departSpeed="max"/>
    <trip depart="89.00" id="rs_c001_i000_194" from="26369585" to="-61997814#0" type="None" departLane="free" departSpeed="max"/>
    <trip depart="90.00" id="rs_c001_i000_189" from="51340803#0" to="330026282" type="None" departLane="free" departSpeed="max"/>
    <trip depart="90.00" id="rs_c001_i000_195" from="-58767757#1" to="330026282" type="None" departLane="free" departSpeed="max"/>
    <trip depart="91.00" id="rs_c000_i001_131" from="183247520" to="330026282" type="None" departLane="free" departSpeed="max"/>
    <trip depart="91.00" id="rs_c001_i000_197" from="-85562446#0" to="24436432" type="None" departLane="free" departSpeed="max"/>
    <trip depart="92.00" id="rs_c000_i000_1050" from="-328266345" to="25561760" type="None" departLane="free" departSpeed="max"/>
    <trip depart="92.00" id="rs_c000_i000_1060" from="-26127182#1" to="330026282" type="None" departLane="free" departSpeed="max"/>
    <trip depart="93.00" id="rs_c000_i000_586" from="4238091#1" to="102282710" type="None" departLane="free" departSpeed="max"/>
    <trip depart="93.00" id="rs_c000_i000_1064" from="24423403#5" to="107348023" type="None" departLane="free" departSpeed="max"/>
    <trip depart="93.00" id="rs_c000_i001_133" from="4643592" to="107348023" type="None" departLane="free" departSpeed="max"/>
    <trip depart="94.00" id="rs_c000_i001_93" from="-95937723" to="30692830#0" type="None" departLane="free" departSpeed="max"/>
    <trip depart="96.00" id="rs_c000_i000_1095" from="15242129#1" to="107348023" type="None" departLane="free" departSpeed="max"/>
    <trip depart="96.00" id="rs_c001_i000_205" from="-14573382#2" to="133113961" type="None" departLane="free" departSpeed="max"/>
    <trip depart="97.00" id="rs_c000_i000_1112" from="-24423403#7" to="5067357#0" type="None" departLane="free" departSpeed="max"/>
    <trip depart="97.00" id="rs_c000_i000_1122" from="-30471057#0" to="24398218" type="None" departLane="free" departSpeed="max"/>
    <trip depart="98.00" id="rs_c000_i002_19" from="-212694593#3" to="30692830#0" type="None" departLane="free" departSpeed="max"/>
    <trip depart="98.00" id="rs_c000_i000_1131" from="-5234464" to="16070101#1" type="None" departLane="free" departSpeed="max"/>
    <trip depart="98.00" id="rs_c000_i000_1132" from="-83497364" to="-807837521#2" type="None" departLane="free" departSpeed="max"/>
    <trip depart="98.00" id="rs_c000_i001_141" from="364419352#0" to="138037519" type="None" departLane="free" departSpeed="max"/>
    <trip depart="100.00" id="rs_c000_i000_1143" from="84017451#0" to="30692830#0" type="None" departLane="free" departSpeed="max"/>
    <trip depart="100.00" id="rs_c000_i001_146" from="-10426031#1" to="83292791#1" type="None" departLane="free" departSpeed="max"/>
    <trip depart="100.00" id="rs_c001_i000_213" from="-328813517" to="272043198" type="None" departLane="free" departSpeed="max"/>
    <trip depart="101.00" id="rs_c000_i000_1157" from="137996244#0" to="24436432" type="None" departLane="free" departSpeed="max"/>
    <trip depart="101.00" id="rs_c001_i000_215_part0" from="25361892#1" to="703967781" type="None" departLane="free" departSpeed="max"/>
    <trip depart="103.00" id="rs_c000_i000_1177" from="-122529100" to="24436432" type="None" departLane="free" departSpeed="max"/>
    <trip depart="103.00" id="rs_c000_i000_1186" from="358697049#0" to="330026282" type="None" departLane="free" departSpeed="max"/>
    <trip depart="103.00" id="rs_c000_i000_1189" from="642129591" to="107348023" type="None" departLane="free" departSpeed="max"/>
    <trip depart="103.00" id="rs_c001_i002_4" from="-4361529#0" to="-61970060" type="None" departLane="free" departSpeed="max"/>
    <trip depart="104.00" id="rs_c001_i000_11" from="96718345" to="25561760" type="None" departLane="free" departSpeed="max"/>
    <trip depart="104.00" id="rs_c000_i000_238" from="206112920" to="-42557002" type="None" departLane="free" departSpeed="max"/>
    <trip depart="104.00" id="rs_c000_i000_521" from="4238091#1" to="43263108" type="None" departLane="free" departSpeed="max"/>
    <trip depart="105.00" id="rs_c000_i000_1200" from="-301127377" to="107348023" type="None" departLane="free" departSpeed="max"/>
    <trip depart="106.00" id="rs_c001_i000_220" from="133113962#0" to="30692830#0" type="None" departLane="free" departSpeed="max"/>
    <trip depart="106.00" id="rs_c000_i001_157" from="-94087966" to="5137912" type="None" departLane="free" departSpeed="max"/>
    <trip depart="107.00" id="rs_c000_i000_1211" from="-286404309" to="330026282" type="None" departLane="free" departSpeed="max"/>
    <trip depart="107.00" id="rs_c000_i000_1213" from="-34777320" to="107348023" type="None" departLane="free" departSpeed="max"/>
    <trip depart="107.00" id="rs_c000_i000_1214" from="39644113#0" to="24436432" type="None" departLane="free" departSpeed="max"/>
    <trip depart="107.00" id="rs_c000_i000_1216" from="-4485423" to="117626381" type="None" departLane="free" departSpeed="max"/>