<?xml version="1.0" encoding="utf-8"?>
<routes>
 <vType color="green" id="taxi" personCapacity="2" vClass="taxi">
  <param key="has.taxi.device" value="true"/>
  <param key="device.taxi.pickUpDuration" value="0"/>
  <param key="device.taxi.dropOffDuration" value="10"/>
  <param key="device.taxi.parking" value="true"/>
 </vType>
 <trip depart="0" from="28912317#3" id="t29" to="-722724103" type="taxi"/>
 <trip depart="0" from="83179014" id="t28" to="-97694266" type="taxi"/>
 <trip depart="0" from="26390583" id="t27" to="-23960853#0" type="taxi"/>
 <trip depart="0" from="142497097" id="t26" to="-5234757#0" type="taxi"/>
 <trip depart="0" from="-26127182#2" id="t25" to="5231759" type="taxi"/>
 <trip depart="0" from="29712334#0" id="t24" to="51340803#1" type="taxi"/>
 <trip depart="0" from="17006445" id="t23" to="118155456#1" type="taxi"/>
 <trip depart="0" from="839402626#1" id="t22" to="183247520" type="taxi"/>
 <trip depart="0" from="118155460" id="t21" to="83163132" type="taxi"/>
 <trip depart="0" from="14573382#1" id="t20" to="144246396#1" type="taxi"/>
 <trip depart="0" from="28912317#3" id="t19" to="-855931740" type="taxi"/>
 <trip depart="0" from="-76346745" id="t18" to="-177387877" type="taxi"/>
 <trip depart="0" from="81646465#1" id="t17" to="116049788#1" type="taxi"/>
 <trip depart="0" from="4273624" id="t16" to="102332984#0" type="taxi"/>
 <trip depart="0" from="-28918381#1" id="t15" to="237386917#0" type="taxi"/>
 <trip depart="0" from="-79690674#0" id="t14" to="19850958#1" type="taxi"/>
 <trip depart="0" from="94107470" id="t13" to="-147136167" type="taxi"/>
 <trip depart="0" from="-26127182#1" id="t12" to="463124698" type="taxi"/>
 <trip depart="0" from="-15242129#1" id="t11" to="93670633#1" type="taxi"/>
 <trip depart="0" from="-26121953" id="t10" to="-4353778#1" type="taxi"/>
 <trip depart="0" from="142497094" id="t9" to="35391376" type="taxi"/>
 <trip depart="0" from="25153030" id="t8" to="-26349563#1" type="taxi"/>
 <trip depart="0" from="-95100609" id="t7" to="-84018298" type="taxi"/>
 <trip depart="0" from="-177387877" id="t6" to="183247519#0" type="taxi"/>
 <trip depart="0" from="188654001#0" id="t5" to="-38325502#0" type="taxi"/>
 <trip depart="0" from="-30140142" id="t4" to="-26165752#1" type="taxi"/>
 <trip depart="0" from="35061798" id="t3" to="327572784" type="taxi"/>
 <trip depart="0" from="95937728#1" id="t2" to="10357193" type="taxi"/>
 <trip depart="0" from="62115256" id="t1" to="35067049" type="taxi"/>
 <trip depart="0" from="-122529094#9" id="t0" to="631862806" type="taxi"/>
 <trip depart="4.0" departLane="best" departSpeed="max" from="-26037066" id="rs_c000_i000_49" to="58423646"/>
 <trip depart="8.0" departLane="best" departSpeed="max" from="-52673136" id="rs_c000_i000_105" to="24429380-AddedOffRampEdge"/>
 <trip depart="24.0" departLane="best" departSpeed="max" from="219528064" id="rs_c001_i001_7" to="234899446"/>
 <trip depart="33.0" departLane="best" departSpeed="max" from="-369150317#0" id="rs_c000_i000_381" to="26187757#1"/>
 <trip depart="43.0" departLane="best" departSpeed="max" from="-10426204#1" id="rs_c001_i000_90" to="35062429#0"/>
 <trip depart="56.0" departLane="best" departSpeed="max" from="4273624" id="rs_c000_i000_657" to="1081179231"/>
 <trip depart="64.0" departLane="best" departSpeed="max" from="-4680630" id="rs_c001_i000_143" to="24424238#0"/>
 <trip depart="91.0" departLane="best" departSpeed="max" from="183247520" id="rs_c000_i001_131" to="35062429#0"/>
 <person depart="92.0" id="p0">
  <ride from="-328266345" lines="taxi" parkingArea="pa102332984#0" to="102332984#0"/>
 </person>
 <trip depart="136.0" departLane="best" departSpeed="max" from="-10426171#1" id="rs_c000_i000_1528" to="10425893#2"/>
 <trip depart="156.0" departLane="best" departSpeed="max" from="-28840232#0" id="rs_c000_i000_1756" to="58423646"/>
 <trip depart="169.0" departLane="best" departSpeed="max" from="-328813517" id="rs_c001_i000_320" to="234899446"/>
 <trip depart="212.0" departLane="best" departSpeed="max" from="-26295654#3" id="rs_c000_i000_2344" to="25980639"/>
 <trip depart="213.0" departLane="best" departSpeed="max" from="-42792917#0" id="rs_c000_i000_2348" to="24405134"/>
 <trip depart="214.0" departLane="best" departSpeed="max" from="-313693701" id="rs_c000_i000_2368" to="39139679"/>
 <trip depart="216.0" departLane="best" departSpeed="max" from="-116049442" id="rs_c000_i000_2391" to="26187757#1"/>
 <person depart="217.0" id="p1">
  <ride from="10558745" lines="taxi" parkingArea="pa104147692" to="104147692"/>
 </person>
 <trip depart="218.0" departLane="best" departSpeed="max" from="4680630" id="rs_c000_i000_2403" to="104147692"/>
 <trip depart="234.0" departLane="best" departSpeed="max" from="-61371685#0" id="rs_c000_i000_2581" to="104147692"/>
 <trip depart="243.0" departLane="best" departSpeed="max" from="169313833#0" id="rs_c000_i000_2668" to="26187755#0"/>
 <trip depart="251.03" departLane="best" departSpeed="max" from="240100844#0" id="rs_c000_i000_295" to="530282943"/>
 <trip depart="257.0" departLane="best" departSpeed="max" from="-79690674#0" id="rs_c001_i000_132" to="30471451"/>
 <trip depart="266.0" departLane="best" departSpeed="max" from="-211120148" id="rs_c001_i000_370" to="35062429#0"/>
 <person depart="269.0" id="p2">
  <ride from="98236882#1" lines="taxi" parkingArea="pa60727164#1" to="60727164#1"/>
 </person>
 <trip depart="270.0" departLane="best" departSpeed="max" from="-50044720#1" id="rs_c000_i001_409" to="38455846"/>
 <person depart="272.33" id="p3">
  <ride from="-30471451" lines="taxi" parkingArea="pa362987791#0" to="362987791#0"/>
 </person>
 <trip depart="282.0" departLane="best" departSpeed="max" from="-95100609" id="rs_c000_i000_3122" to="24428921"/>
 <person depart="293.0" id="p4">
  <ride from="237386917#0" lines="taxi" parkingArea="pa-330920155" to="-330920155"/>
 </person>
 <trip depart="294.0" departLane="best" departSpeed="max" from="4229427#2" id="rs_c001_i000_561" to="60727164#1"/>
 <trip depart="299.0" departLane="best" departSpeed="max" from="-24399330#1" id="rs_c001_i000_471" to="58423646"/>
 <person depart="305.0" id="p5">
  <ride from="-26040356#1" lines="taxi" parkingArea="pa58423646" to="58423646"/>
 </person>
 <person depart="315.0" id="p6">
  <ride from="-10425852" lines="taxi" parkingArea="pa35062429#0" to="35062429#0"/>
 </person>
 <trip depart="324.26" departLane="best" departSpeed="max" from="35703215" id="rs_c000_i000_1724" to="-1075684663#0"/>
 <person depart="335.0" id="p7">
  <ride from="-101521565" lines="taxi" parkingArea="pa117654824#0" to="117654824#0"/>
 </person>
 <trip depart="353.0" departLane="best" departSpeed="max" from="-95937728#1" id="rs_c000_i000_2986" to="144246396#1"/>
 <trip depart="364.0" departLane="best" departSpeed="max" from="166533654#1" id="rs_c001_i000_690" to="35062429#0"/>
 <person depart="368.0" id="p8">
  <ride from="138350778#1" lines="taxi" parkingArea="pa117654824#0" to="117654824#0"/>
 </person>
 <trip depart="377.0" departLane="best" departSpeed="max" from="166533654#1" id="rs_c000_i000_4161" to="139124541#0"/>
 <person depart="403.12" id="p9">
  <ride from="-30471451" lines="taxi" parkingArea="pa61367454#1" to="61367454#1"/>
 </person>
 <trip depart="406.0" departLane="best" departSpeed="max" from="-26040294#1" id="rs_c000_i000_4507" to="58423646"/>
 <trip depart="418.57" departLane="best" departSpeed="max" from="-30471451" id="rs_c001_i000_345" to="102332984#0"/>
 <person depart="421.0" id="p10">
  <ride from="-328253310#0" lines="taxi" parkingArea="pa30471451" to="30471451"/>
 </person>
 <person depart="422.89" id="p11">
  <ride from="240100844#0" lines="taxi" parkingArea="pa530282943" to="530282943"/>
 </person>
 <trip depart="435.33" departLane="best" departSpeed="max" from="-30471451" id="rs_c000_i001_467" to="362987791#0"/>
 <trip depart="453.0" departLane="best" departSpeed="max" from="126449309" id="rs_c000_i001_699" to="102332984#0"/>
 <trip depart="455.0" departLane="best" departSpeed="max" from="24031456#6" id="rs_c001_i000_886" to="58423646"/>
 <trip depart="459.0" departLane="best" departSpeed="max" from="118864084" id="rs_c000_i000_5134" to="58423646"/>
 <trip depart="460.0" departLane="best" departSpeed="max" from="38674850" id="rs_c000_i000_324" to="38674844"/>
 <person depart="461.0" id="p12">
  <ride from="117624637#0" lines="taxi" parkingArea="pa132793806" to="132793806"/>
 </person>
 <trip depart="464.59" departLane="best" departSpeed="max" from="240100844#0" id="rs_c001_i001_60_part1" to="530282943"/>
 <trip depart="465.0" departLane="best" departSpeed="max" from="-35605874#2" id="rs_c000_i000_5212" to="104147692"/>
 <person depart="465.13" id="p13">
  <ride from="62059875#1" lines="taxi" parkingArea="pa34760663" to="34760663"/>
 </person>
 <person depart="468.0" id="p14">
  <ride from="-301127378" lines="taxi" parkingArea="pa35062429#0" to="35062429#0"/>
 </person>
 <trip depart="469.41" departLane="best" departSpeed="max" from="240100844#0" id="rs_c000_i000_2185" to="530282943"/>
 <person depart="471.0" id="p15">
  <ride from="-95937728#1" lines="taxi" parkingArea="pa144246396#1" to="144246396#1"/>
 </person>
 <trip depart="483.0" departLane="best" departSpeed="max" from="-122529094#9" id="rs_c000_i001_744" to="144246396#1"/>
 <person depart="489.0" id="p16">
  <ride from="-212694591" lines="taxi" parkingArea="pa26187755#0" to="26187755#0"/>
 </person>
 <trip depart="507.0" departLane="best" departSpeed="max" from="122529102#1" id="rs_c000_i000_5652" to="144246396#1"/>
 <trip depart="514.56" departLane="best" departSpeed="max" from="30471452#0" id="rs_c000_i000_2035" to="60727164#1"/>
 <trip depart="540.62" departLane="best" departSpeed="max" from="62059875#1" id="rs_c001_i000_658" to="34760663"/>
 <trip depart="543.0" departLane="best" departSpeed="max" from="30326721" id="rs_c001_i000_1055" to="104147692"/>
 <trip depart="546.0" departLane="best" departSpeed="max" from="5234741" id="rs_c000_i000_6055" to="39139679"/>
 <person depart="550.93" id="p17">
  <ride from="25600863" lines="taxi" parkingArea="pa24429380-AddedOffRampEdge" to="24429380-AddedOffRampEdge"/>
 </person>
 <trip depart="563.0" departLane="best" departSpeed="max" from="-4227191" id="rs_c001_i001_127" to="234899446"/>
 <trip depart="568.38" departLane="best" departSpeed="max" from="62059875#1" id="rs_c001_i000_722" to="34760663"/>
 <trip depart="569.0" departLane="best" departSpeed="max" from="-136864084#0" id="rs_c000_i000_6319" to="26187757#1"/>
 <person depart="581.16" id="p18">
  <ride from="29712334#0" lines="taxi" parkingArea="pa104147692" to="104147692"/>
 </person>
 <person depart="582.0" id="p19">
  <ride from="-95937728#1" lines="taxi" parkingArea="pa144246396#1" to="144246396#1"/>
 </person>
 <trip depart="582.19" departLane="best" departSpeed="max" from="30471452#0" id="rs_c000_i000_492" to="234899446"/>
 <trip depart="587.85" departLane="best" departSpeed="max" from="240100844#0" id="rs_c001_i000_831" to="530282943"/>
 <trip depart="588.24" departLane="best" departSpeed="max" from="-30471451" id="rs_c001_i001_121" to="60727164#1"/>
 <trip depart="589.0" departLane="best" departSpeed="max" from="-78343358#0" id="rs_c000_i000_6544" to="25980639"/>
 <trip depart="609.0" departLane="best" departSpeed="max" from="142497095" id="rs_c000_i000_6759" to="1081179231"/>
 <trip depart="619.0" departLane="best" departSpeed="max" from="-38281520#1" id="rs_c001_i000_1195" to="28230831"/>
 <person depart="621.0" id="p20">
  <ride from="-26085515#0" lines="taxi" parkingArea="pa58423646" to="58423646"/>
 </person>
 <person depart="624.0" id="p21">
  <ride from="-137388192#1" lines="taxi" parkingArea="pa38455846" to="38455846"/>
 </person>
 <trip depart="624.84" departLane="best" departSpeed="max" from="35703215" id="rs_c000_i000_3511" to="25980639"/>
 <trip depart="660.0" departLane="best" departSpeed="max" from="-10425852" id="rs_c000_i000_7348" to="35062429#0"/>
 <person depart="662.0" id="p22">
  <ride from="25976329#1" lines="taxi" parkingArea="pa34776006" to="34776006"/>
 </person>
 <trip depart="662.0" departLane="best" departSpeed="max" from="-118155460" id="rs_c000_i000_7362" to="26187757#1"/>
 <trip depart="666.0" departLane="best" departSpeed="max" from="132817971" id="rs_c000_i000_7402" to="139124541#0"/>
 <person depart="667.0" id="p23">
  <ride from="-8394848" lines="taxi" parkingArea="pa35062429#0" to="35062429#0"/>
 </person>
 <trip depart="669.12" departLane="best" departSpeed="max" from="30471452#0" id="rs_c000_i000_2075" to="60727164#1"/>
 <trip depart="673.33" departLane="best" departSpeed="max" from="38674850" id="rs_c000_i000_3265" to="38674844"/>
 <trip depart="673.85" departLane="best" departSpeed="max" from="257423660#1" id="rs_c000_i000_305" to="10357406#2"/>
 <trip depart="682.0" departLane="best" departSpeed="max" from="51340803#1" id="rs_c000_i001_1021" to="35062429#0"/>
 <person depart="685.0" id="p24">
  <ride from="631862806" lines="taxi" parkingArea="pa60727164#1" to="60727164#1"/>
 </person>
 <trip depart="690.0" departLane="best" departSpeed="max" from="-79690674#0" id="rs_c001_i000_1226" to="30326722"/>
 <trip depart="692.0" departLane="best" departSpeed="max" from="51340803#1" id="rs_c001_i000_1248" to="35062429#0"/>
 <trip depart="694.0" departLane="best" departSpeed="max" from="136721678" id="rs_c000_i000_7742" to="25980639"/>
 <trip depart="699.38" departLane="best" departSpeed="max" from="30471452#0" id="rs_c001_i000_339" to="234899446"/>
 <trip depart="702.0" departLane="best" departSpeed="max" from="301503276" id="rs_c001_i000_1339" to="35061798"/>
 <trip depart="710.14" departLane="best" departSpeed="max" from="30471452#0" id="rs_c000_i000_3663" to="234899446"/>
 <trip depart="714.72" departLane="best" departSpeed="max" from="30471452#0" id="rs_c001_i000_512" to="-15242129#1"/>
 <trip depart="719.0" departLane="best" departSpeed="max" from="5086880" id="rs_c001_i000_1367" to="30326722"/>
 <trip depart="721.0" departLane="best" departSpeed="max" from="-83163114#0" id="rs_c001_i000_1371" to="234899446"/>
 <person depart="721.83" id="p25">
  <ride from="240100844#0" lines="taxi" parkingArea="pa530282943" to="530282943"/>
 </person>
 <person depart="722.0" id="p26">
  <ride from="125828734" lines="taxi" parkingArea="pa60727164#1" to="60727164#1"/>
 </person>
 <person depart="728.0" id="p27">
  <ride from="-96556756" lines="taxi" parkingArea="pa362987791#0" to="362987791#0"/>
 </person>
 <trip depart="743.0" departLane="best" departSpeed="max" from="26369585" id="rs_c001_i000_1412" to="234899446"/>
 <trip depart="751.0" departLane="best" departSpeed="max" from="-237367748#1" id="rs_c001_i002_18" to="530282943"/>
 <trip depart="752.81" departLane="best" departSpeed="max" from="38674850" id="rs_c000_i000_1535" to="104147692"/>
 <trip depart="753.0" departLane="best" departSpeed="max" from="24031456#4" id="rs_c001_i002_19" to="58423646"/>
 <person depart="766.96" id="p28">
  <ride from="240100844#0" lines="taxi" parkingArea="pa530282943" to="530282943"/>
 </person>
 <trip depart="767.0" departLane="best" departSpeed="max" from="30141563" id="rs_c000_i000_8551" to="102332984#0"/>
 <trip depart="770.0" departLane="best" departSpeed="max" from="219528064" id="rs_c001_i000_1455" to="5095213"/>
 <trip depart="772.0" departLane="best" departSpeed="max" from="-96809683#1" id="rs_c000_i000_8630" to="26187757#1"/>
 <trip depart="775.16" departLane="best" departSpeed="max" from="38674850" id="rs_c001_i000_1021" to="237368116#1"/>
 <trip depart="775.24" departLane="best" departSpeed="max" from="30471452#0" id="rs_c000_i000_2377" to="24424238#0"/>
 <person depart="795.6" id="p29">
  <ride from="30471452#0" lines="taxi" parkingArea="pa362987791#0" to="362987791#0"/>
 </person>
 <trip depart="799.0" departLane="best" departSpeed="max" from="26368315" id="rs_c000_i000_8945" to="26187757#1"/>
 <person depart="799.31" id="p30">
  <ride from="30471452#0" lines="taxi" parkingArea="pa61367419#2" to="61367419#2"/>
 </person>
 <person depart="800.14" id="p31">
  <ride from="62059875#1" lines="taxi" parkingArea="pa25980639" to="25980639"/>
 </person>
 <trip depart="804.0" departLane="best" departSpeed="max" from="26040294#2" id="rs_c000_i000_9001" to="58423646"/>
 <person depart="806.13" id="p32">
  <ride from="38674850" lines="taxi" parkingArea="pa237368116#1" to="237368116#1"/>
 </person>
 <trip depart="811.96" departLane="best" departSpeed="max" from="-30471451" id="rs_c000_i001_1046" to="362987791#0"/>
 <trip depart="817.83" departLane="best" departSpeed="max" from="-30471451" id="rs_c000_i001_1155" to="362987791#0"/>
 <person depart="826.0" id="p33">
  <ride from="-30141087" lines="taxi" parkingArea="pa102332984#0" to="102332984#0"/>
 </person>
 <person depart="841.0" id="p34">
  <ride from="-78535771" lines="taxi" parkingArea="pa234899446" to="234899446"/>
 </person>
 <trip depart="851.0" departLane="best" departSpeed="max" from="5095197#0" id="rs_c001_i000_1613" to="104147692"/>
 <trip depart="852.0" departLane="best" departSpeed="max" from="-26037066" id="rs_c001_i000_1617" to="58423646"/>
 <trip depart="852.38" departLane="best" departSpeed="max" from="58097865" id="rs_c000_i000_3860" to="24429380-AddedOffRampEdge"/>
 <person depart="853.0" id="p35">
  <ride from="-5095178#1" lines="taxi" parkingArea="pa34760663" to="34760663"/>
 </person>
 <trip depart="853.4" departLane="best" departSpeed="max" from="35703215" id="rs_c000_i001_242" to="-1075684663#0"/>
 <trip depart="854.0" departLane="best" departSpeed="max" from="142497097" id="rs_c001_i000_1624" to="234899446"/>
 <trip depart="854.59" departLane="best" departSpeed="max" from="62059875#1" id="rs_c001_i000_868" to="34760663"/>
 <trip depart="855.24" departLane="best" departSpeed="max" from="58097865" id="rs_c000_i000_5851" to="24429380-AddedOffRampEdge"/>
 <trip depart="860.12" departLane="best" departSpeed="max" from="30471452#0" id="rs_c000_i000_5247" to="-62115255"/>
 <person depart="871.0" id="p36">
  <ride from="-211120148" lines="taxi" parkingArea="pa35062429#0" to="35062429#0"/>
 </person>
 <person depart="874.0" id="p37">
  <ride from="300981184#1" lines="taxi" parkingArea="pa26187757#1" to="26187757#1"/>
 </person>
 <trip depart="874.48" departLane="best" departSpeed="max" from="35703215" id="rs_c000_i000_3656" to="-1075684663#0"/>
 <trip depart="889.0" departLane="best" departSpeed="max" from="-23960853#0" id="rs_c000_i000_9965" to="25980639"/>
 <trip depart="895.0" departLane="best" departSpeed="max" from="10357494" id="rs_c001_i000_1727" to="28230831"/>
 <trip depart="896.0" departLane="best" departSpeed="max" from="-26368312" id="rs_c000_i000_10034" to="39139679"/>
 <trip depart="904.0" departLane="best" departSpeed="max" from="26040294#0" id="rs_c000_i000_10134" to="58423646"/>
 <trip depart="905.0" departLane="best" departSpeed="max" from="62057889" id="rs_c001_i001_217" to="104147692"/>
 <person depart="906.0" id="p38">
  <ride from="-211120148" lines="taxi" parkingArea="pa35062429#0" to="35062429#0"/>
 </person>
 <trip depart="909.0" departLane="best" departSpeed="max" from="-349902607#0" id="rs_c000_i000_10197" to="30471451"/>
 <trip depart="909.57" departLane="best" departSpeed="max" from="29712334#0" id="rs_c001_i000_962" to="14571550#0"/>
 <person depart="922.09" id="p39">
  <ride from="93670626" lines="taxi" parkingArea="pa-1069054067" to="-1069054067"/>
 </person>
 <person depart="927.0" id="p40">
  <ride from="15242128#1" lines="taxi" parkingArea="pa38455846" to="38455846"/>
 </person>
 <person depart="930.0" id="p41">
  <ride from="-121411754" lines="taxi" parkingArea="pa25980639" to="25980639"/>
 </person>
 <trip depart="936.0" departLane="best" departSpeed="max" from="-126449297#0" id="rs_c000_i000_10510" to="102332984#0"/>
 <trip depart="939.0" departLane="best" departSpeed="max" from="-5234280#0" id="rs_c000_i000_10535" to="38455846"/>
 <person depart="942.0" id="p42">
  <ride from="-211208696#0" lines="taxi" parkingArea="pa102332984#0" to="102332984#0"/>
 </person>
 <person depart="958.06" id="p43">
  <ride from="38674850" lines="taxi" parkingArea="pa237368116#1" to="237368116#1"/>
 </person>
 <trip depart="964.0" departLane="best" departSpeed="max" from="51530168" id="rs_c000_i000_10849" to="234899446"/>
 <trip depart="966.94" departLane="best" departSpeed="max" from="58097865" id="rs_c000_i001_208" to="24429380-AddedOffRampEdge"/>
 <trip depart="969.19" departLane="best" departSpeed="max" from="38674850" id="rs_c001_i000_1230" to="38674844"/>
 <trip depart="970.0" departLane="best" departSpeed="max" from="-95937943#2" id="rs_c000_i000_10908" to="24428921"/>
 <trip depart="977.42" departLane="best" departSpeed="max" from="35703215" id="rs_c001_i000_636" to="25980639"/>
 <trip depart="990.0" departLane="best" departSpeed="max" from="118155456#0" id="rs_c000_i000_11151" to="26187757#1"/>
 <trip depart="990.0" departLane="best" departSpeed="max" from="-117654815#3" id="rs_c000_i000_11155" to="117654824#0"/>
 <trip depart="990.72" departLane="best" departSpeed="max" from="58097865" id="rs_c000_i000_7424" to="24429380-AddedOffRampEdge"/>
 <trip depart="996.0" departLane="best" departSpeed="max" from="28918381#2" id="rs_c001_i000_1893" to="104147692"/>
 <trip depart="1009.8" departLane="best" departSpeed="max" from="26341966#1" id="rs_c000_i000_3202" to="32016029#5"/>
 <trip depart="1017.39" departLane="best" departSpeed="max" from="240100844#0" id="rs_c000_i000_9097_part1" to="530282943"/>
 <trip depart="1019.0" departLane="best" departSpeed="max" from="122529094#0" id="rs_c000_i000_11455" to="24428921"/>
 <trip depart="1024.07" departLane="best" departSpeed="max" from="38674850" id="rs_c001_i000_1252" to="839402626#1"/>
 <person depart="1026.0" id="p44">
  <ride from="-4353778#1" lines="taxi" parkingArea="pa58423646" to="58423646"/>
 </person>
 <trip depart="1029.68" departLane="best" departSpeed="max" from="38674850" id="rs_c000_i000_4135" to="237368116#1"/>
 <person depart="1030.0" id="p45">
  <ride from="83173842#1" lines="taxi" parkingArea="pa-1069054067" to="-1069054067"/>
 </person>
 <trip depart="1040.44" departLane="best" departSpeed="max" from="62059875#1" id="rs_c000_i000_9176" to="34760663"/>
 <trip depart="1042.0" departLane="best" departSpeed="max" from="118864079#0" id="rs_c000_i000_11721" to="58423646"/>
 <trip depart="1049.72" departLane="best" departSpeed="max" from="35703215" id="rs_c001_i000_1050" to="-1075684663#0"/>
 <trip depart="1050.0" departLane="best" departSpeed="max" from="-122529094#9" id="rs_c000_i000_11806" to="144246396#1"/>
 <person depart="1053.0" id="p46">
  <ride from="159761034" lines="taxi" parkingArea="pa26187757#1" to="26187757#1"/>
 </person>
 <person depart="1053.93" id="p47">
  <ride from="240100844#0" lines="taxi" parkingArea="pa530282943" to="530282943"/>
 </person>
 <person depart="1059.0" id="p48">
  <ride from="301503168#1" lines="taxi" parkingArea="pa35061798" to="35061798"/>
 </person>
 <person depart="1068.57" id="p49">
  <ride from="38674850" lines="taxi" parkingArea="pa38674844" to="38674844"/>
 </person>
 <trip depart="1070.83" departLane="best" departSpeed="max" from="93670626" id="rs_c001_i000_227" to="234899446"/>
 <trip depart="1078.96" departLane="best" departSpeed="max" from="240100844#0" id="rs_c000_i000_9441" to="530282943"/>
 <person depart="1079.93" id="p50">
  <ride from="38674850" lines="taxi" parkingArea="pa38674844" to="38674844"/>
 </person>
 <person depart="1080.6" id="p51">
  <ride from="-30471451" lines="taxi" parkingArea="pa102332984#0" to="102332984#0"/>
 </person>
 <trip depart="1081.0" departLane="best" departSpeed="max" from="-10426204#0" id="rs_c001_i000_2052" to="35062429#0"/>
 <trip depart="1089.0" departLane="best" departSpeed="max" from="96915239#1" id="rs_c000_i000_12269" to="58423646"/>
 <trip depart="1102.0" departLane="best" departSpeed="max" from="-95937728#1" id="rs_c000_i000_11558" to="144246396#1"/>
 <person depart="1105.0" id="p52">
  <ride from="-10425883" lines="taxi" parkingArea="pa10425893#2" to="10425893#2"/>
 </person>
 <person depart="1113.0" id="p53">
  <ride from="136721683" lines="taxi" parkingArea="pa26187757#1" to="26187757#1"/>
 </person>
 <person depart="1134.0" id="p54">
  <ride from="-101486395" lines="taxi" parkingArea="pa24429380-AddedOffRampEdge" to="24429380-AddedOffRampEdge"/>
 </person>
 <person depart="1137.14" id="p55">
  <ride from="240100844#0" lines="taxi" parkingArea="pa530282943" to="530282943"/>
 </person>
 <trip depart="1138.67" departLane="best" departSpeed="max" from="38674850" id="rs_c000_i001_776" to="38674844"/>
 <trip depart="1140.92" departLane="best" departSpeed="max" from="5086872" id="rs_c001_i000_723" to="32016029#1"/>
 <trip depart="1159.0" departLane="best" departSpeed="max" from="-95937728#1" id="rs_c000_i000_11893" to="144246396#1"/>
 <person depart="1162.5" id="p56">
  <ride from="30471452#0" lines="taxi" parkingArea="pa234899446" to="234899446"/>
 </person>
 <person depart="1173.0" id="p57">
  <ride from="-61984349#0" lines="taxi" parkingArea="pa34760663" to="34760663"/>
 </person>
 <trip depart="1176.0" departLane="best" departSpeed="max" from="-4680624#0" id="rs_c001_i000_2237" to="234899446"/>
 <trip depart="1178.44" departLane="best" departSpeed="max" from="30471452#0" id="rs_c000_i000_7761" to="234899446"/>
 <trip depart="1184.0" departLane="best" departSpeed="max" from="-211120148" id="rs_c000_i002_216" to="35062429#0"/>
 <trip depart="1184.0" departLane="best" departSpeed="max" from="33826298" id="rs_c000_i000_13394" to="58423646"/>
 <person depart="1185.71" id="p58">
  <ride from="-30471451" lines="taxi" parkingArea="pa60727164#1" to="60727164#1"/>
 </person>
 <trip depart="1187.0" departLane="best" departSpeed="max" from="4233644#0" id="rs_c000_i000_13440" to="530282943"/>
 <person depart="1188.0" id="p59">
  <ride from="-26127182#2" lines="taxi" parkingArea="pa144246396#1" to="144246396#1"/>
 </person>
 <trip depart="1192.0" departLane="best" departSpeed="max" from="-79690674#0" id="rs_c000_i000_10705" to="34760663"/>
 <trip depart="1192.16" departLane="best" departSpeed="max" from="-30471451" id="rs_c000_i000_11711" to="60727164#1"/>
 <trip depart="1198.47" departLane="best" departSpeed="max" from="-30471451" id="rs_c000_i000_11823" to="60727164#1"/>
 <trip depart="1198.8" departLane="best" departSpeed="max" from="28912203" id="rs_c000_i001_209" to="38435331"/>
 <trip depart="1199.0" departLane="best" departSpeed="max" from="30471452#0" id="rs_c000_i000_7825" to="-61280135"/>
 <trip depart="1204.26" departLane="best" departSpeed="max" from="93670626" id="rs_c000_i000_5672" to="234899446"/>
 <trip depart="1209.0" departLane="best" departSpeed="max" from="-62057544" id="rs_c001_i000_2303" to="34760663"/>
 <trip depart="1209.92" departLane="best" departSpeed="max" from="30471452#0" id="rs_c001_i000_909" to="26379010#0"/>
 <person depart="1216.0" id="p60">
  <ride from="-59603306" lines="taxi" parkingArea="pa60727164#1" to="60727164#1"/>
 </person>
 <person depart="1217.81" id="p61">
  <ride from="38674850" lines="taxi" parkingArea="pa104147692" to="104147692"/>
 </person>
 <person depart="1220.63" id="p62">
  <ride from="30528972#0" lines="taxi" parkingArea="pa-317402981" to="-317402981"/>
 </person>
 <person depart="1223.0" id="p63">
  <ride from="-26127182#2" lines="taxi" parkingArea="pa144246396#1" to="144246396#1"/>
 </person>
 <trip depart="1227.91" departLane="best" departSpeed="max" from="30471452#0" id="rs_c000_i000_8536" to="314405678"/>
 <trip depart="1240.82" departLane="best" departSpeed="max" from="117656065#0" id="rs_c000_i001_136" to="24977246"/>
 <trip depart="1242.0" departLane="best" departSpeed="max" from="-328253309#0" id="rs_c001_i000_2374" to="234899446"/>
 <trip depart="1243.0" departLane="best" departSpeed="max" from="-32016029#2" id="rs_c001_i000_2376" to="24429380-AddedOffRampEdge"/>
 <trip depart="1244.76" departLane="best" departSpeed="max" from="58097865" id="rs_c000_i000_10041" to="24429380-AddedOffRampEdge"/>
 <trip depart="1247.5" departLane="best" departSpeed="max" from="93670626" id="rs_c000_i000_4303" to="234899446"/>
 <trip depart="1251.0" departLane="best" departSpeed="max" from="-95937728#1" id="rs_c000_i000_13022" to="144246396#1"/>
 <trip depart="1263.0" departLane="best" departSpeed="max" from="-211120148" id="rs_c000_i000_14266" to="139124541#0"/>
 <trip depart="1266.56" departLane="best" departSpeed="max" from="-30471451" id="rs_c000_i000_13065" to="362987791#0"/>
 <trip depart="1273.91" departLane="best" departSpeed="max" from="30528972#0" id="rs_c000_i000_2286" to="234899446"/>
 <trip depart="1274.29" departLane="best" departSpeed="max" from="58097865" id="rs_c000_i000_10602" to="24429380-AddedOffRampEdge"/>
 <trip depart="1280.62" departLane="best" departSpeed="max" from="38674850" id="rs_c001_i000_1109" to="104147692"/>
 <trip depart="1283.52" departLane="best" departSpeed="max" from="58097865" id="rs_c000_i002_206" to="24429380-AddedOffRampEdge"/>
 <trip depart="1286.0" departLane="best" departSpeed="max" from="-96809695#2" id="rs_c000_i001_1990" to="26187757#1"/>
 <trip depart="1287.2" departLane="best" departSpeed="max" from="62059875#1" id="rs_c000_i000_10299" to="34760663"/>
 <person depart="1292.0" id="p64">
  <ride from="-5095173" lines="taxi" parkingArea="pa34760663" to="34760663"/>
 </person>
 <trip depart="1301.9" departLane="best" departSpeed="max" from="58097865" id="rs_c000_i000_11010" to="24429380-AddedOffRampEdge"/>
 <trip depart="1314.55" departLane="best" departSpeed="max" from="58097865" id="rs_c000_i000_13034" to="24429380-AddedOffRampEdge"/>
 <trip depart="1322.2" departLane="best" departSpeed="max" from="93670626" id="rs_c000_i000_2491" to="-21052315#0"/>
 <trip depart="1323.44" departLane="best" departSpeed="max" from="-30471451" id="rs_c000_i000_12801" to="102332984#0"/>
 <trip depart="1328.91" departLane="best" departSpeed="max" from="93670626" id="rs_c001_i001_66" to="26348750"/>
 <trip depart="1340.0" departLane="best" departSpeed="max" from="51340803#1" id="rs_c000_i000_14651" to="139124541#0"/>