<?xml version="1.0" encoding="utf-8"?>
<routes>
 <vType color="green" id="taxi" personCapacity="2" vClass="taxi">
  <param key="has.taxi.device" value="true"/>
  <param key="device.taxi.pickUpDuration" value="0"/>
  <param key="device.taxi.dropOffDuration" value="10"/>
  <param key="device.taxi.parking" value="true"/>
 </vType>
 <trip depart="0" from="-369150317#0" id="t65" to="5095206" type="taxi"/>
 <trip depart="0" from="-122529096#0" id="t64" to="61371680#1" type="taxi"/>
 <trip depart="0" from="126449231#0" id="t63" to="-15242126" type="taxi"/>
 <trip depart="0" from="18648957#0" id="t62" to="-97694266" type="taxi"/>
 <trip depart="0" from="-16627594" id="t61" to="-61367424" type="taxi"/>
 <trip depart="0" from="-122529094#3" id="t60" to="257423660#1" type="taxi"/>
 <trip depart="0" from="8136286#1" id="t59" to="290255300" type="taxi"/>
 <trip depart="0" from="-5234278#1" id="t58" to="62057889" type="taxi"/>
 <trip depart="0" from="53682411#1" id="t57" to="57726375#3" type="taxi"/>
 <trip depart="0" from="133104420#0" id="t56" to="81646465#1" type="taxi"/>
 <trip depart="0" from="284410129" id="t55" to="26368315" type="taxi"/>
 <trip depart="0" from="78343351" id="t54" to="331361889" type="taxi"/>
 <trip depart="0" from="-38336405#0" id="t53" to="-339760505#0" type="taxi"/>
 <trip depart="0" from="-237367748#1" id="t52" to="206172953" type="taxi"/>
 <trip depart="0" from="25153048" id="t51" to="142497098" type="taxi"/>
 <trip depart="0" from="301503168#1" id="t50" to="24031456#1" type="taxi"/>
 <trip depart="0" from="4244655" id="t49" to="-26367881" type="taxi"/>
 <trip depart="0" from="-20179292#0" id="t48" to="-16345612#0" type="taxi"/>
 <trip depart="0" from="38674844" id="t47" to="10374052" type="taxi"/>
 <trip depart="0" from="-15242129#0" id="t46" to="-122529094#3" type="taxi"/>
 <trip depart="0" from="37076917" id="t45" to="28377479#0" type="taxi"/>
 <trip depart="0" from="-16345605#0" id="t44" to="-1075684663#0" type="taxi"/>
 <trip depart="0" from="-848433712" id="t43" to="83510232#1" type="taxi"/>
 <trip depart="0" from="-51722315#0" id="t42" to="-61982178#0" type="taxi"/>
 <trip depart="0" from="-26165752#1" id="t41" to="144246396#1" type="taxi"/>
 <trip depart="0" from="-16345605#1" id="t40" to="61495635" type="taxi"/>
 <trip depart="0" from="102282710" id="t39" to="191374715#1" type="taxi"/>
 <trip depart="0" from="-97097111#0" id="t38" to="-142497100#0" type="taxi"/>
 <trip depart="0" from="4233644#0" id="t37" to="17265675" type="taxi"/>
 <trip depart="0" from="-30326685#1" id="t36" to="-10426171#0" type="taxi"/>
 <trip depart="0" from="136721683" id="t35" to="17265677" type="taxi"/>
 <trip depart="0" from="10558947" id="t34" to="4680630" type="taxi"/>
 <trip depart="0" from="118869284#0" id="t33" to="668611390#0" type="taxi"/>
 <trip depart="0" from="191374714#1" id="t32" to="243774930#0" type="taxi"/>
 <trip depart="0" from="-62106186#0" id="t31" to="-22982190" type="taxi"/>
 <trip depart="0" from="29508075#2" id="t30" to="-122529098#1" type="taxi"/>
 <trip depart="0" from="-61367425#0" id="t29" to="20433136#0" type="taxi"/>
 <trip depart="0" from="24423960" id="t28" to="30326720#1" type="taxi"/>
 <trip depart="0" from="1080293510" id="t27" to="-61984348" type="taxi"/>
 <trip depart="0" from="8064519" id="t26" to="-10372461" type="taxi"/>
 <trip depart="0" from="183247520" id="t25" to="183247521#3" type="taxi"/>
 <trip depart="0" from="18648957#0" id="t24" to="102332984#0" type="taxi"/>
 <trip depart="0" from="24407716" id="t23" to="631862806" type="taxi"/>
 <trip depart="0" from="5234761#1" id="t22" to="5234378" type="taxi"/>
 <trip depart="0" from="-98236882#0" id="t21" to="-30141087" type="taxi"/>
 <trip depart="0" from="126449197" id="t20" to="23960394" type="taxi"/>
 <trip depart="0" from="117099159#0" id="t19" to="36912210-AddedOnRampEdge" type="taxi"/>
 <trip depart="0" from="5091199" id="t18" to="-96809693#0" type="taxi"/>
 <trip depart="0" from="-117656067#0" id="t17" to="-122529094#7" type="taxi"/>
 <trip depart="0" from="-233220919" id="t16" to="-61982178#0" type="taxi"/>
 <trip depart="0" from="-126449297#1" id="t15" to="25767797#0" type="taxi"/>
 <trip depart="0" from="-365580162" id="t14" to="42928295" type="taxi"/>
 <trip depart="0" from="-51722315#0" id="t13" to="-24429415" type="taxi"/>
 <trip depart="0" from="50433682#0" id="t12" to="-74011129#0" type="taxi"/>
 <trip depart="0" from="208548184#1" id="t11" to="-212694591" type="taxi"/>
 <trip depart="0" from="159761034" id="t10" to="-331540406" type="taxi"/>
 <trip depart="0" from="61566225#1" id="t9" to="-61491725" type="taxi"/>
 <trip depart="0" from="-118155450" id="t8" to="-97097111#0" type="taxi"/>
 <trip depart="0" from="-24398203#1" id="t7" to="-335084841#1" type="taxi"/>
 <trip depart="0" from="57726375#3" id="t6" to="208548182" type="taxi"/>
 <trip depart="0" from="117643622" id="t5" to="25767797#0" type="taxi"/>
 <trip depart="0" from="-23960853#0" id="t4" to="24031456#1" type="taxi"/>
 <trip depart="0" from="-331540406" id="t3" to="668611390#0" type="taxi"/>
 <trip depart="0" from="-24399330#1" id="t2" to="-51722315#0" type="taxi"/>
 <trip depart="0" from="-118869284#1" id="t1" to="83496334" type="taxi"/>
 <trip depart="0" from="1081179231" id="t0" to="-313656937" type="taxi"/>
 <trip depart="4.0" departLane="best" departSpeed="max" from="-38807023" id="rs_c000_i000_48" to="104147692"/>
 <person depart="7.0" id="p0">
  <ride from="5231759" lines="taxi" parkingArea="pa29970080#0" to="29970080#0"/>
 </person>
 <person depart="8.0" id="p1">
  <ride from="-52673136" lines="taxi" parkingArea="pa24429380-AddedOffRampEdge" to="24429380-AddedOffRampEdge"/>
 </person>
 <person depart="18.0" id="p2">
  <ride from="26959985" lines="taxi" parkingArea="pa362987791#0" to="362987791#0"/>
 </person>
 <trip depart="20.0" departLane="best" departSpeed="max" from="-61367432" id="rs_c000_i000_245" to="104147692"/>
 <trip depart="23.0" departLane="best" departSpeed="max" from="-122529098#1" id="rs_c000_i000_277" to="26187757#1"/>
 <person depart="25.0" id="p3">
  <ride from="56253839" lines="taxi" parkingArea="pa25980639" to="25980639"/>
 </person>
 <trip depart="26.0" departLane="best" departSpeed="max" from="43263108" id="rs_c001_i000_42" to="30471451"/>
 <trip depart="27.0" departLane="best" departSpeed="max" from="-74011129#0" id="rs_c000_i001_35" to="25980639"/>
 <trip depart="33.0" departLane="best" departSpeed="max" from="290255300" id="rs_c000_i000_384" to="58423646"/>
 <trip depart="38.0" departLane="best" departSpeed="max" from="-5067354#1" id="rs_c000_i000_437" to="34760663"/>
 <trip depart="43.0" departLane="best" departSpeed="max" from="-10426204#1" id="rs_c001_i000_90" to="35062429#0"/>
 <trip depart="43.0" departLane="best" departSpeed="max" from="-95212556" id="rs_c000_i000_487" to="24428921"/>
 <trip depart="47.0" departLane="best" departSpeed="max" from="-122529096#6" id="rs_c000_i000_529" to="26187755#0"/>
 <person depart="49.0" id="p4">
  <ride from="-286243203#1" lines="taxi" parkingArea="pa24405134" to="24405134"/>
 </person>
 <trip depart="53.0" departLane="best" departSpeed="max" from="30326559" id="rs_c000_i000_612" to="34760663"/>
 <trip depart="56.0" departLane="best" departSpeed="max" from="4273624" id="rs_c000_i000_657" to="1081179231"/>
 <trip depart="57.0" departLane="best" departSpeed="max" from="61496433" id="rs_c000_i001_79" to="28230831"/>
 <person depart="60.0" id="p5">
  <ride from="-15242127#1" lines="taxi" parkingArea="pa1081179231" to="1081179231"/>
 </person>
 <person depart="64.0" id="p6">
  <ride from="-4680630" lines="taxi" parkingArea="pa24424238#0" to="24424238#0"/>
 </person>
 <trip depart="67.0" departLane="best" departSpeed="max" from="-83488868" id="rs_c001_i000_149" to="104147692"/>
 <trip depart="70.0" departLane="best" departSpeed="max" from="-32016029#2" id="rs_c001_i000_156_part0" to="-26341966#1"/>
 <trip depart="72.0" departLane="best" departSpeed="max" from="-14573382#2" id="rs_c000_i000_843" to="35062429#0"/>
 <trip depart="76.0" departLane="best" departSpeed="max" from="116049443#1" id="rs_c000_i000_504_part1" to="26187755#0"/>
 <trip depart="76.0" departLane="best" departSpeed="max" from="-10425858" id="rs_c000_i000_882" to="139124541#0"/>
 <trip depart="78.0" departLane="best" departSpeed="max" from="87397777" id="rs_c000_i000_896" to="362987791#0"/>
 <trip depart="80.0" departLane="best" departSpeed="max" from="96915239#1" id="rs_c000_i000_928" to="58423646"/>
 <trip depart="81.0" departLane="best" departSpeed="max" from="51340803#1" id="rs_c000_i000_920" to="139124541#0"/>
 <trip depart="85.0" departLane="best" departSpeed="max" from="62789947#2" id="rs_c000_i000_975" to="25980639"/>
 <trip depart="86.0" departLane="best" departSpeed="max" from="83163114#1" id="rs_c000_i000_990" to="39139679"/>
 <trip depart="89.0" departLane="best" departSpeed="max" from="26369585" id="rs_c001_i000_194" to="-61997814#0"/>
 <trip depart="91.0" departLane="best" departSpeed="max" from="51340803#1" id="rs_c001_i000_59" to="35062429#0"/>
 <trip depart="91.0" departLane="best" departSpeed="max" from="183247520" id="rs_c000_i001_131" to="35062429#0"/>
 <person depart="100.0" id="p7">
  <ride from="-328813517" lines="taxi" parkingArea="pa104147692" to="104147692"/>
 </person>
 <trip depart="105.0" departLane="best" departSpeed="max" from="-211208696#0" id="rs_c001_i000_103" to="234899446"/>
 <person depart="105.0" id="p8">
  <ride from="-301127377" lines="taxi" parkingArea="pa26187757#1" to="26187757#1"/>
 </person>
 <person depart="127.0" id="p9">
  <ride from="136864086" lines="taxi" parkingArea="pa58423646" to="58423646"/>
 </person>
 <trip depart="129.0" departLane="best" departSpeed="max" from="-39316011#1" id="rs_c000_i000_1471" to="286340282"/>
 <person depart="136.0" id="p10">
  <ride from="10559201" lines="taxi" parkingArea="pa35062429#0" to="35062429#0"/>
 </person>
 <person depart="142.0" id="p11">
  <ride from="26085515#5" lines="taxi" parkingArea="pa58423646" to="58423646"/>
 </person>
 <trip depart="143.0" departLane="best" departSpeed="max" from="4492786" id="rs_c000_i000_1621" to="102332984#0"/>
 <person depart="144.0" id="p12">
  <ride from="-51722315#0" lines="taxi" parkingArea="pa117654824#0" to="117654824#0"/>
 </person>
 <trip depart="145.0" departLane="best" departSpeed="max" from="285621683" id="rs_c000_i000_1638" to="138914231#0"/>
 <trip depart="146.0" departLane="best" departSpeed="max" from="-328040089" id="rs_c000_i000_1649" to="5091199"/>
 <trip depart="147.85" departLane="best" departSpeed="max" from="35062276" id="rs_c001_i000_25" to="234899446"/>
 <trip depart="148.0" departLane="best" departSpeed="max" from="137996244#0" id="rs_c000_i000_1675" to="24428921"/>
 <trip depart="149.0" departLane="best" departSpeed="max" from="30529010#1" id="rs_c000_i001_219" to="116049788#1"/>
 <person depart="151.0" id="p13">
  <ride from="-211120148" lines="taxi" parkingArea="pa35062429#0" to="35062429#0"/>
 </person>
 <trip depart="156.0" departLane="best" departSpeed="max" from="-28840232#0" id="rs_c000_i000_1756" to="58423646"/>
 <person depart="164.0" id="p14">
  <ride from="-335084841#0" lines="taxi" parkingArea="pa102332984#0" to="102332984#0"/>
 </person>
 <trip depart="165.0" departLane="best" departSpeed="max" from="-14433921#1" id="rs_c000_i000_1859" to="38455846"/>
 <trip depart="167.0" departLane="best" departSpeed="max" from="-5234280#0" id="rs_c000_i000_1879" to="38455846"/>
 <trip depart="171.0" departLane="best" departSpeed="max" from="462046218" id="rs_c001_i000_340" to="38455846"/>
 <trip depart="173.0" departLane="best" departSpeed="max" from="-79690674#0" id="rs_c000_i000_895" to="34760663"/>
 <trip depart="177.0" departLane="best" departSpeed="max" from="51856551#0" id="rs_c001_i000_348" to="30471451"/>
 <trip depart="181.0" departLane="best" departSpeed="max" from="118869284#0" id="rs_c000_i000_2018" to="26187755#0"/>
 <trip depart="187.0" departLane="best" departSpeed="max" from="14571550#1" id="rs_c000_i002_46" to="38455846"/>
 <trip depart="193.0" departLane="best" departSpeed="max" from="-211208696#0" id="rs_c001_i000_276" to="234899446"/>
 <trip depart="197.0" departLane="best" departSpeed="max" from="-87397780" id="rs_c000_i001_293" to="1081179231"/>
 <trip depart="213.0" departLane="best" departSpeed="max" from="-42792917#0" id="rs_c000_i000_2348" to="24405134"/>
 <person depart="214.0" id="p15">
  <ride from="-313693701" lines="taxi" parkingArea="pa39139679" to="39139679"/>
 </person>
 <trip depart="214.0" departLane="best" departSpeed="max" from="-369150317#0" id="rs_c000_i000_2371" to="58423646"/>
 <trip depart="217.0" departLane="best" departSpeed="max" from="10558745" id="rs_c000_i000_2397" to="104147692"/>
 <trip depart="218.0" departLane="best" departSpeed="max" from="4680630" id="rs_c000_i000_2403" to="104147692"/>
 <trip depart="221.0" departLane="best" departSpeed="max" from="-8058345" id="rs_c001_i000_433" to="362987791#0"/>
 <person depart="224.0" id="p16">
  <ride from="-26127182#2" lines="taxi" parkingArea="pa26187755#0" to="26187755#0"/>
 </person>
 <trip depart="234.0" departLane="best" departSpeed="max" from="-61371685#0" id="rs_c000_i000_2581" to="104147692"/>
 <trip depart="238.0" departLane="best" departSpeed="max" from="117099147#0" id="rs_c000_i000_2613" to="58423646"/>
 <trip depart="242.0" departLane="best" departSpeed="max" from="8064520" id="rs_c000_i000_2658" to="30471451"/>
 <trip depart="255.0" departLane="best" departSpeed="max" from="34149613" id="rs_c000_i001_378" to="26187757#1"/>
 <trip depart="257.0" departLane="best" departSpeed="max" from="-79690674#0" id="rs_c001_i000_132" to="30471451"/>
 <person depart="259.0" id="p17">
  <ride from="-212694590" lines="taxi" parkingArea="pa144246396#1" to="144246396#1"/>
 </person>
 <trip depart="261.0" departLane="best" departSpeed="max" from="125351110" id="rs_c000_i000_2871" to="144246396#1"/>
 <trip depart="263.0" departLane="best" departSpeed="max" from="301503168#1" id="rs_c000_i000_2206" to="35061798"/>
 <person depart="266.0" id="p18">
  <ride from="-212694591" lines="taxi" parkingArea="pa26187755#0" to="26187755#0"/>
 </person>
 <trip depart="269.0" departLane="best" departSpeed="max" from="98236882#1" id="rs_c001_i000_511" to="60727164#1"/>
 <trip depart="269.0" departLane="best" departSpeed="max" from="-22914198" id="rs_c000_i000_2965" to="35062429#0"/>
 <trip depart="269.02" departLane="best" departSpeed="max" from="58097865" id="rs_c000_i000_709" to="24429380-AddedOffRampEdge"/>
 <person depart="272.33" id="p19">
  <ride from="-30471451" lines="taxi" parkingArea="pa362987791#0" to="362987791#0"/>
 </person>
 <trip depart="273.0" departLane="best" departSpeed="max" from="73225130#1" id="rs_c001_i000_520" to="24429380-AddedOffRampEdge"/>
 <person depart="274.87" id="p20">
  <ride from="-30471451" lines="taxi" parkingArea="pa362987791#0" to="362987791#0"/>
 </person>
 <trip depart="278.0" departLane="best" departSpeed="max" from="56253839" id="rs_c000_i000_3068" to="58425043"/>
 <trip depart="281.0" departLane="best" departSpeed="max" from="-286404309" id="rs_c000_i001_426" to="58423646"/>
 <person depart="285.0" id="p21">
  <ride from="-301127378" lines="taxi" parkingArea="pa35062429#0" to="35062429#0"/>
 </person>
 <trip depart="286.0" departLane="best" departSpeed="max" from="-32016029#3" id="rs_c001_i001_76" to="224710093#1"/>
 <trip depart="293.0" departLane="best" departSpeed="max" from="-224710093#0" id="rs_c000_i000_3232" to="530282943"/>
 <person depart="293.0" id="p22">
  <ride from="-78343357" lines="taxi" parkingArea="pa117654824#0" to="117654824#0"/>
 </person>
 <person depart="295.0" id="p23">
  <ride from="4643592" lines="taxi" parkingArea="pa234899446" to="234899446"/>
 </person>
 <trip depart="302.0" departLane="best" departSpeed="max" from="-62106322#0" id="rs_c001_i000_145" to="138914231#0"/>
 <trip depart="302.0" departLane="best" departSpeed="max" from="-75565714" id="rs_c001_i000_578" to="30326722"/>
 <trip depart="304.0" departLane="best" departSpeed="max" from="-79690674#0" id="rs_c000_i000_416" to="34760663"/>
 <trip depart="304.9" departLane="best" departSpeed="max" from="-30471451" id="rs_c000_i000_2345" to="60727164#1"/>
 <trip depart="314.0" departLane="best" departSpeed="max" from="349896687#1" id="rs_c000_i000_3457" to="1081179231"/>
 <person depart="321.11" id="p24">
  <ride from="240100844#0" lines="taxi" parkingArea="pa530282943" to="530282943"/>
 </person>
 <person depart="323.0" id="p25">
  <ride from="24031456#0" lines="taxi" parkingArea="pa24428921" to="24428921"/>
 </person>
 <trip depart="324.26" departLane="best" departSpeed="max" from="35703215" id="rs_c000_i000_1724" to="-1075684663#0"/>
 <trip depart="335.0" departLane="best" departSpeed="max" from="-101521565" id="rs_c000_i000_3685" to="117654824#0"/>
 <trip depart="342.0" departLane="best" departSpeed="max" from="-38336405#0" id="rs_c000_i000_3759" to="104147692"/>
 <trip depart="343.0" departLane="best" departSpeed="max" from="5095166" id="rs_c001_i000_652" to="30471451"/>
 <trip depart="346.0" departLane="best" departSpeed="max" from="-122529110" id="rs_c000_i000_3802" to="144246396#1"/>
 <trip depart="348.0" departLane="best" departSpeed="max" from="-122529101" id="rs_c001_i000_660" to="26187755#0"/>
 <person depart="356.43" id="p26">
  <ride from="58097865" lines="taxi" parkingArea="pa104147692" to="104147692"/>
 </person>
 <person depart="363.0" id="p27">
  <ride from="-52673136" lines="taxi" parkingArea="pa60727164#1" to="60727164#1"/>
 </person>
 <trip depart="365.0" departLane="best" departSpeed="max" from="118864079#1" id="rs_c000_i000_4008" to="26187757#1"/>
 <trip depart="367.0" departLane="best" departSpeed="max" from="-95937728#1" id="rs_c000_i000_2366" to="144246396#1"/>
 <trip depart="370.0" departLane="best" departSpeed="max" from="301503276" id="rs_c000_i000_4067" to="35061798"/>
 <trip depart="379.0" departLane="best" departSpeed="max" from="-211208696#0" id="rs_c001_i000_701" to="24424238#0"/>
 <trip depart="383.0" departLane="best" departSpeed="max" from="-14571550#0" id="rs_c000_i001_587" to="35062429#0"/>
 <trip depart="388.0" departLane="best" departSpeed="max" from="5091199" id="rs_c000_i000_4287" to="34760663"/>
 <trip depart="402.0" departLane="best" departSpeed="max" from="-22604699#0" id="rs_c000_i000_4461" to="104147692"/>
 <trip depart="406.0" departLane="best" departSpeed="max" from="-26040294#1" id="rs_c000_i000_4507" to="58423646"/>
 <trip depart="414.0" departLane="best" departSpeed="max" from="95916459" id="rs_c000_i001_632" to="35062429#0"/>
 <trip depart="416.0" departLane="best" departSpeed="max" from="136721679#0" id="rs_c000_i000_4626" to="24428921"/>
 <trip depart="418.57" departLane="best" departSpeed="max" from="-30471451" id="rs_c001_i000_345" to="102332984#0"/>
 <person depart="422.0" id="p28">
  <ride from="-335084841#1" lines="taxi" parkingArea="pa234899446" to="234899446"/>
 </person>
 <trip depart="423.0" departLane="best" departSpeed="max" from="631862806" id="rs_c001_i000_812" to="234899446"/>
 <person depart="428.0" id="p29">
  <ride from="-136721675" lines="taxi" parkingArea="pa58423646" to="58423646"/>
 </person>
 <trip depart="430.0" departLane="best" departSpeed="max" from="-83510232#0" id="rs_c001_i001_103" to="234899446"/>
 <trip depart="430.39" departLane="best" departSpeed="max" from="-30471451" id="rs_c000_i000_2866" to="60727164#1"/>
 <person depart="431.0" id="p30">
  <ride from="-23960853#0" lines="taxi" parkingArea="pa138914231#0" to="138914231#0"/>
 </person>
 <trip depart="432.81" departLane="best" departSpeed="max" from="38674850" id="rs_c000_i001_44" to="38674844"/>
 <trip depart="434.0" departLane="best" departSpeed="max" from="-137388193" id="rs_c000_i000_4832" to="38455846"/>
 <trip depart="434.62" departLane="best" departSpeed="max" from="29508075#2" id="rs_c000_i000_1243_part1" to="132793806"/>
 <trip depart="437.0" departLane="best" departSpeed="max" from="-4232328" id="rs_c000_i000_4872" to="530282943"/>
 <person depart="437.67" id="p31">
  <ride from="-30471451" lines="taxi" parkingArea="pa60727164#1" to="60727164#1"/>
 </person>
 <person depart="438.0" id="p32">
  <ride from="-95937728#1" lines="taxi" parkingArea="pa144246396#1" to="144246396#1"/>
 </person>
 <trip depart="439.0" departLane="best" departSpeed="max" from="97097111#1" id="rs_c000_i000_4896" to="234899446"/>
 <trip depart="444.0" departLane="best" departSpeed="max" from="24398203#1" id="rs_c000_i000_4955" to="58423646"/>
 <trip depart="444.76" departLane="best" departSpeed="max" from="38674850" id="rs_c000_i002_21" to="38674844"/>
 <trip depart="448.0" departLane="best" departSpeed="max" from="122529098#0" id="rs_c000_i000_4992" to="26187757#1"/>
 <trip depart="451.0" departLane="best" departSpeed="max" from="-10426171#0" id="rs_c001_i000_874" to="35062429#0"/>
 <trip depart="457.0" departLane="best" departSpeed="max" from="-136721671" id="rs_c000_i000_5099" to="26187757#1"/>
 <person depart="459.0" id="p33">
  <ride from="24031456#5" lines="taxi" parkingArea="pa58423646" to="58423646"/>
 </person>
 <trip depart="464.0" departLane="best" departSpeed="max" from="-212694590" id="rs_c000_i000_5199" to="144246396#1"/>
 <person depart="464.0" id="p34">
  <ride from="125351183" lines="taxi" parkingArea="pa26187755#0" to="26187755#0"/>
 </person>
 <trip depart="466.0" departLane="best" departSpeed="max" from="-32016029#2" id="rs_c000_i000_5229" to="-26341966#1"/>
 <trip depart="471.6" departLane="best" departSpeed="max" from="30471452#0" id="rs_c000_i000_447" to="234899446"/>
 <person depart="477.0" id="p35">
  <ride from="126140573#0" lines="taxi" parkingArea="pa234899446" to="234899446"/>
 </person>
 <trip depart="479.0" departLane="best" departSpeed="max" from="-26040356#1" id="rs_c001_i000_923" to="58423646"/>
 <trip depart="482.0" departLane="best" departSpeed="max" from="-38336405#3" id="rs_c000_i000_5385" to="104147692"/>
 <trip depart="485.0" departLane="best" departSpeed="max" from="-147136167" id="rs_c001_i000_940" to="35062429#0"/>
 <person depart="485.0" id="p36">
  <ride from="1010508082" lines="taxi" parkingArea="pa39139679" to="39139679"/>
 </person>
 <trip depart="492.38" departLane="best" departSpeed="max" from="58097865" id="rs_c000_i000_88" to="24429380-AddedOffRampEdge"/>
 <trip depart="501.0" departLane="best" departSpeed="max" from="-136864084#1" id="rs_c000_i000_5581" to="24428921"/>
 <trip depart="504.0" departLane="best" departSpeed="max" from="-314426030#0" id="rs_c000_i000_5617" to="234899446"/>
 <trip depart="507.0" departLane="best" departSpeed="max" from="122529102#1" id="rs_c000_i000_5652" to="144246396#1"/>
 <trip depart="522.0" departLane="best" departSpeed="max" from="-122529098#1" id="rs_c000_i000_5812" to="58423646"/>
 <trip depart="527.0" departLane="best" departSpeed="max" from="26040294#0" id="rs_c001_i000_1014" to="58423646"/>
 <trip depart="530.0" departLane="best" departSpeed="max" from="83163137" id="rs_c001_i000_1024" to="104147692"/>
 <person depart="531.0" id="p37">
  <ride from="-24399325#0" lines="taxi" parkingArea="pa58423646" to="58423646"/>
 </person>
 <trip depart="533.0" departLane="best" departSpeed="max" from="98236882#1" id="rs_c001_i000_1036" to="60727164#1"/>
 <trip depart="542.0" departLane="best" departSpeed="max" from="4250372" id="rs_c000_i000_6018" to="61566225#1"/>
 <trip depart="543.87" departLane="best" departSpeed="max" from="38674850" id="rs_c001_i000_83" to="237368116#1"/>
 <trip depart="565.0" departLane="best" departSpeed="max" from="-79690674#0" id="rs_c000_i000_6177" to="34760663"/>
 <trip depart="567.0" departLane="best" departSpeed="max" from="-34149612#0" id="rs_c000_i000_6290" to="24428921"/>
 <person depart="571.0" id="p38">
  <ride from="301503168#1" lines="taxi" parkingArea="pa35061798" to="35061798"/>
 </person>
 <person depart="571.0" id="p39">
  <ride from="-14571550#0" lines="taxi" parkingArea="pa35062429#0" to="35062429#0"/>
 </person>
 <trip depart="574.0" departLane="best" departSpeed="max" from="-62115260" id="rs_c000_i000_6377" to="24429380-AddedOffRampEdge"/>
 <person depart="576.0" id="p40">
  <ride from="32461045#6" lines="taxi" parkingArea="pa328253309#1" to="328253309#1"/>
 </person>
 <trip depart="576.0" departLane="best" departSpeed="max" from="78535771" id="rs_c000_i001_871" to="362987791#0"/>
 <person depart="577.0" id="p41">
  <ride from="-4244655" lines="taxi" parkingArea="pa24424238#0" to="24424238#0"/>
 </person>
 <person depart="580.3" id="p42">
  <ride from="30471452#0" lines="taxi" parkingArea="pa-24429415" to="-24429415"/>
 </person>
 <person depart="582.0" id="p43">
  <ride from="-95937728#1" lines="taxi" parkingArea="pa144246396#1" to="144246396#1"/>
 </person>
 <trip depart="583.0" departLane="best" departSpeed="max" from="-118155460" id="rs_c000_i000_6492" to="26187757#1"/>
 <trip depart="585.0" departLane="best" departSpeed="max" from="-35606385#0" id="rs_c000_i000_101" to="-283762346"/>
 <trip depart="585.0" departLane="best" departSpeed="max" from="4250371" id="rs_c001_i000_1141" to="24424238#0"/>
 <trip depart="585.23" departLane="best" departSpeed="max" from="30471452#0" id="rs_c000_i000_621" to="60727164#1"/>
 <trip depart="586.0" departLane="best" departSpeed="max" from="-57726373#0" id="rs_c000_i000_6484" to="58423646"/>
 <trip depart="587.52" departLane="best" departSpeed="max" from="30471452#0" id="rs_c000_i001_419" to="60727164#1"/>
 <trip depart="589.0" departLane="best" departSpeed="max" from="-211208696#0" id="rs_c000_i000_5930" to="234899446"/>
 <person depart="590.62" id="p44">
  <ride from="25600863" lines="taxi" parkingArea="pa24429380-AddedOffRampEdge" to="24429380-AddedOffRampEdge"/>
 </person>
 <trip depart="591.7" departLane="best" departSpeed="max" from="62059875#1" id="rs_c001_i000_952" to="34760663"/>
 <person depart="593.0" id="p45">
  <ride from="-95937728#1" lines="taxi" parkingArea="pa144246396#1" to="144246396#1"/>
 </person>
 <trip depart="597.0" departLane="best" departSpeed="max" from="-57726373#0" id="rs_c000_i000_6601" to="58423646"/>
 <person depart="600.59" id="p46">
  <ride from="58097865" lines="taxi" parkingArea="pa38674844" to="38674844"/>
 </person>
 <trip depart="601.0" departLane="best" departSpeed="max" from="-79690674#0" id="rs_c000_i000_3423" to="25980639"/>
 <person depart="603.0" id="p47">
  <ride from="-10374052" lines="taxi" parkingArea="pa530282943" to="530282943"/>
 </person>
 <trip depart="604.0" departLane="best" departSpeed="max" from="118864079#4" id="rs_c001_i000_1173" to="58423646"/>
 <person depart="607.0" id="p48">
  <ride from="5234573#1" lines="taxi" parkingArea="pa35062429#0" to="35062429#0"/>
 </person>
 <person depart="607.5" id="p49">
  <ride from="38674850" lines="taxi" parkingArea="pa104147692" to="104147692"/>
 </person>
 <trip depart="609.0" departLane="best" departSpeed="max" from="142497095" id="rs_c000_i000_6759" to="1081179231"/>
 <person depart="611.0" id="p50">
  <ride from="-14434303" lines="taxi" parkingArea="pa104147692" to="104147692"/>
 </person>
 <trip depart="622.04" departLane="best" departSpeed="max" from="35062276" id="rs_c000_i000_5634" to="362987791#0"/>
 <trip depart="622.08" departLane="best" departSpeed="max" from="30471452#0" id="rs_c000_i000_1659" to="60727164#1"/>
 <trip depart="630.0" departLane="best" departSpeed="max" from="30471452#0" id="rs_c000_i000_2178" to="234899446"/>
 <trip depart="635.0" departLane="best" departSpeed="max" from="-122529094#7" id="rs_c000_i000_7054" to="144246396#1"/>
 <trip depart="636.0" departLane="best" departSpeed="max" from="-345608028" id="rs_c000_i000_7073" to="234899446"/>
 <person depart="638.0" id="p51">
  <ride from="321098632#1" lines="taxi" parkingArea="pa234899446" to="234899446"/>
 </person>
 <person depart="641.0" id="p52">
  <ride from="-117643624" lines="taxi" parkingArea="pa117654824#0" to="117654824#0"/>
 </person>
 <trip depart="642.0" departLane="best" departSpeed="max" from="-122529096#6" id="rs_c000_i000_7151" to="26187755#0"/>
 <trip depart="644.0" departLane="best" departSpeed="max" from="-26127182#2" id="rs_c000_i000_7173" to="144246396#1"/>
 <trip depart="645.63" departLane="best" departSpeed="max" from="240100844#0" id="rs_c001_i000_851" to="530282943"/>
 <trip depart="646.0" departLane="best" departSpeed="max" from="132817973#0" id="rs_c000_i002_140" to="139124541#0"/>
 <trip depart="648.0" departLane="best" departSpeed="max" from="30471452#0" id="rs_c001_i000_351" to="60727164#1"/>
 <trip depart="651.41" departLane="best" departSpeed="max" from="240100844#0" id="rs_c000_i000_3992" to="530282943"/>
 <trip depart="657.0" departLane="best" departSpeed="max" from="-10425883" id="rs_c001_i001_156" to="35062429#0"/>
 <trip depart="658.12" departLane="best" departSpeed="max" from="25600863" id="rs_c000_i002_69_part0" to="24429380-AddedOffRampEdge"/>
 <trip depart="665.0" departLane="best" departSpeed="max" from="142497098" id="rs_c000_i000_7266" to="60727164#1"/>
 <trip depart="670.0" departLane="best" departSpeed="max" from="26085515#5" id="rs_c000_i000_7437" to="58423646"/>
 <trip depart="671.0" departLane="best" departSpeed="max" from="-10558007#0" id="rs_c000_i000_7454" to="29970080#0"/>
 <trip depart="672.59" departLane="best" departSpeed="max" from="240100844#0" id="rs_c000_i000_5379" to="530282943"/>
 <trip depart="684.0" departLane="best" departSpeed="max" from="-61367412" id="rs_c001_i000_1318" to="237368116#1"/>
 <trip depart="691.64" departLane="best" departSpeed="max" from="30471452#0" id="rs_c000_i000_2480" to="1081179231"/>
 <trip depart="692.0" departLane="best" departSpeed="max" from="-136864086" id="rs_c000_i001_1059" to="24428921"/>
 <person depart="693.0" id="p53">
  <ride from="-62057884#1" lines="taxi" parkingArea="pa34760663" to="34760663"/>
 </person>
 <trip depart="693.0" departLane="best" departSpeed="max" from="-42792917#1" id="rs_c000_i001_1061" to="117654824#0"/>