<?xml version="1.0" encoding="utf-8"?>
<routes>
 <vType color="green" id="taxi" personCapacity="2" vClass="taxi">
  <param key="has.taxi.device" value="true"/>
  <param key="device.taxi.pickUpDuration" value="0"/>
  <param key="device.taxi.dropOffDuration" value="10"/>
  <param key="device.taxi.parking" value="true"/>
 </vType>
 <trip depart="0" from="97694267" id="t0" to="10357508#0" type="taxi"/>
 <trip depart="0" from="61371685#1" id="t1" to="-301127377" type="taxi"/>
 <trip depart="0" from="-5234280#0" id="t2" to="-101486395" type="taxi"/>
 <trip depart="0" from="42902344" id="t3" to="-28918381#0" type="taxi"/>
 <trip depart="0" from="4492785#0" id="t4" to="-122529094#6" type="taxi"/>
 <trip depart="0" from="34178669" id="t5" to="26348751#0" type="taxi"/>
 <trip depart="0" from="-86527638#0" id="t6" to="117099153" type="taxi"/>
 <trip depart="0" from="-122529094#8" id="t7" to="35703222" type="taxi"/>
 <trip depart="0" from="15242128#1" id="t8" to="-345608028" type="taxi"/>
 <trip depart="0" from="-34776024" id="t9" to="-217696289" type="taxi"/>
 <trip depart="0" from="-35772871" id="t10" to="10373960" type="taxi"/>
 <trip depart="0" from="122529096#7" id="t11" to="26349563#0" type="taxi"/>
 <trip depart="0" from="61495635" id="t12" to="-74693877" type="taxi"/>
 <trip depart="0" from="530282943" id="t13" to="8102545" type="taxi"/>
 <trip depart="0" from="-314405014" id="t14" to="-5234378" type="taxi"/>
 <trip depart="0" from="-147136167" id="t15" to="139124541#0" type="taxi"/>
 <trip depart="0" from="-9604697" id="t16" to="132817971" type="taxi"/>
 <trip depart="0" from="61280133#1" id="t17" to="10372364#1" type="taxi"/>
 <trip depart="0" from="-136864086" id="t18" to="-71360393" type="taxi"/>
 <trip depart="0" from="30690511" id="t19" to="-233171094#3" type="taxi"/>
 <trip depart="0" from="61495635" id="t20" to="-122529096#7" type="taxi"/>
 <trip depart="0" from="122529094#2" id="t21" to="210457775#0" type="taxi"/>
 <trip depart="0" from="117654819#1" id="t22" to="22982190" type="taxi"/>
 <trip depart="0" from="-212694591" id="t23" to="-234902999" type="taxi"/>
 <trip depart="0" from="5234378" id="t24" to="-76346747" type="taxi"/>
 <trip depart="0" from="96596623#1" id="t25" to="117623507" type="taxi"/>
 <trip depart="0" from="-94107509" id="t26" to="-62057644" type="taxi"/>
 <trip depart="0" from="24977246" id="t27" to="-5234464" type="taxi"/>
 <trip depart="0" from="-62106322#0" id="t28" to="136721670#1" type="taxi"/>
 <trip depart="0" from="-118155450" id="t29" to="-408861540" type="taxi"/>
 <trip depart="0" from="85562446#1" id="t30" to="142497097" type="taxi"/>
 <trip depart="0" from="10502291#1" id="t31" to="-102278339" type="taxi"/>
 <trip depart="0" from="137996244#0" id="t32" to="-191374712#0" type="taxi"/>
 <trip depart="0" from="-286243205" id="t33" to="14994763" type="taxi"/>
 <trip depart="0" from="4680620#1" id="t34" to="35062429#0" type="taxi"/>
 <trip depart="0" from="-15242128#1" id="t35" to="-14573382#3" type="taxi"/>
 <trip depart="0" from="87525116" id="t36" to="-117639101#1" type="taxi"/>
 <trip depart="0" from="28717819#0" id="t37" to="188956289" type="taxi"/>
 <trip depart="0" from="211199291" id="t38" to="-122529094#6" type="taxi"/>
 <trip depart="0" from="-44503434#0" id="t39" to="103302383#0" type="taxi"/>
 <trip depart="0" from="10374052" id="t40" to="-314258297" type="taxi"/>
 <trip depart="0" from="1080293510" id="t41" to="40347661#1" type="taxi"/>
 <trip depart="0" from="133104420#0" id="t42" to="87397777" type="taxi"/>
 <trip depart="0" from="-24031456#6" id="t43" to="10357311" type="taxi"/>
 <trip depart="0" from="5095166" id="t44" to="21052315#0" type="taxi"/>
 <trip depart="0" from="631862806" id="t45" to="335084841#1" type="taxi"/>
 <trip depart="0" from="83163097#1" id="t46" to="96596623#1" type="taxi"/>
 <trip depart="0" from="-224710093#0" id="t47" to="83173314" type="taxi"/>
 <trip depart="0" from="61367419#2" id="t48" to="24429415" type="taxi"/>
 <trip depart="0" from="-137996243" id="t49" to="5234697" type="taxi"/>
 <trip depart="0" from="-117099170" id="t50" to="-1069054067" type="taxi"/>
 <trip depart="0" from="-366308474" id="t51" to="-26378767#1" type="taxi"/>
 <trip depart="0" from="929213813" id="t52" to="42928295" type="taxi"/>
 <trip depart="0" from="118869284#0" id="t53" to="-122529114#2" type="taxi"/>
 <trip depart="0" from="35061524" id="t54" to="73225130#1" type="taxi"/>
 <trip depart="0" from="-14573382#3" id="t55" to="5234378" type="taxi"/>
 <trip depart="0" from="137996244#1" id="t56" to="4353778#1" type="taxi"/>
 <trip depart="0" from="233171094#0" id="t57" to="-57078728" type="taxi"/>
 <trip depart="0" from="38674840" id="t58" to="126449309" type="taxi"/>
 <trip depart="0" from="-10426171#0" id="t59" to="116049443#2" type="taxi"/>
 <trip depart="0" from="84643987" id="t60" to="-61367455" type="taxi"/>
 <trip depart="0" from="14571549" id="t61" to="136721675" type="taxi"/>
 <trip depart="0" from="-162352616" id="t62" to="-300060711" type="taxi"/>
 <trip depart="0" from="-128489934" id="t63" to="-62057644" type="taxi"/>
 <trip depart="0" from="-52673136" id="t64" to="-122529099" type="taxi"/>
 <trip depart="0" from="-211199290#1" id="t65" to="26187879" type="taxi"/>
 <trip depart="0" from="-8102548" id="t66" to="31465531#1" type="taxi"/>
 <trip depart="0" from="-30140142" id="t67" to="33826298" type="taxi"/>
 <trip depart="0" from="80443183" id="t68" to="379527001" type="taxi"/>
 <trip depart="0" from="-101486395" id="t69" to="-125351165#1" type="taxi"/>
 <trip depart="0" from="26085515#3" id="t70" to="28912203" type="taxi"/>
 <trip depart="0" from="169313833#0" id="t71" to="24398203#2" type="taxi"/>
 <trip depart="0" from="219528064" id="t72" to="-84020452" type="taxi"/>
 <trip depart="0" from="233171094#3" id="t73" to="47089824" type="taxi"/>
 <trip depart="0" from="290255303#1" id="t74" to="-30141087" type="taxi"/>
 <trip depart="0" from="117649850#0" id="t75" to="-300060711" type="taxi"/>
 <trip depart="0" from="118869284#1" id="t76" to="122529114#2" type="taxi"/>
 <trip depart="0" from="-38336405#2" id="t77" to="-369181504" type="taxi"/>
 <trip depart="0" from="126449241" id="t78" to="34294088#0" type="taxi"/>
 <trip depart="0" from="45180352" id="t79" to="312543253" type="taxi"/>
 <trip depart="0" from="-117643622" id="t80" to="312543253" type="taxi"/>
 <trip depart="0" from="-122529094#9" id="t81" to="408861540" type="taxi"/>
 <trip depart="0" from="-24399330#0" id="t82" to="117654815#3" type="taxi"/>
 <trip depart="0" from="126449238" id="t83" to="38674848" type="taxi"/>
 <trip depart="0" from="-63116620#0" id="t84" to="-96809693#1" type="taxi"/>
 <trip depart="0" from="61496433" id="t85" to="-83488867" type="taxi"/>
 <trip depart="0" from="-369180511#0" id="t86" to="-77606148#0" type="taxi"/>
 <trip depart="0" from="117624637#1" id="t87" to="162352616" type="taxi"/>
 <trip depart="0" from="-317402981" id="t88" to="5095178#0" type="taxi"/>
 <trip depart="0" from="94087971" id="t89" to="35703215" type="taxi"/>
 <trip depart="0" from="58425043" id="t90" to="-313693701" type="taxi"/>
 <trip depart="0" from="-45180352" id="t91" to="24399330#1" type="taxi"/>
 <trip depart="0" from="-61495638" id="t92" to="-84020452" type="taxi"/>
 <trip depart="0" from="118155452#1" id="t93" to="-30326685#1" type="taxi"/>
 <trip depart="0" from="28717819#0" id="t94" to="349902608#1" type="taxi"/>
 <trip depart="0" from="233171094#3" id="t95" to="-14573382#3" type="taxi"/>
 <trip depart="0" from="286340278" id="t96" to="-300981184#1" type="taxi"/>
 <trip depart="0" from="4244482#1" id="t97" to="14573382#0" type="taxi"/>
 <trip depart="0" from="24477199" id="t98" to="-314422898#0" type="taxi"/>
 <trip depart="0" from="30261166#0" id="t99" to="-61371680#0" type="taxi"/>
 <trip depart="0" from="-4233643" id="t100" to="-118155453" type="taxi"/>
 <trip depart="0" from="-26040356#1" id="t101" to="240100844#0" type="taxi"/>
 <trip depart="0" from="219528064" id="t102" to="24428915" type="taxi"/>
 <trip depart="0" from="-118869284#0" id="t103" to="10426204#1" type="taxi"/>
 <trip depart="0" from="237368116#1" id="t104" to="-10426173" type="taxi"/>
 <trip depart="0" from="62106371#0" id="t105" to="-122529094#6" type="taxi"/>
 <trip depart="0" from="28231152" id="t106" to="50433682#0" type="taxi"/>
 <trip depart="0" from="30140141" id="t107" to="4273629" type="taxi"/>
 <trip depart="0" from="-212694591" id="t108" to="94087971" type="taxi"/>
 <trip depart="0" from="-212694591" id="t109" to="5067346#1" type="taxi"/>
 <trip depart="0" from="61982177#1" id="t110" to="-24398203#1" type="taxi"/>
 <trip depart="0" from="-10363301" id="t111" to="16345612#1" type="taxi"/>
 <trip depart="0" from="-193640980" id="t112" to="4232328" type="taxi"/>
 <trip depart="0" from="138670798" id="t113" to="-61280132" type="taxi"/>
 <trip depart="0" from="-644345097" id="t114" to="117099170" type="taxi"/>
 <trip depart="0" from="-286243200" id="t115" to="-63116620#0" type="taxi"/>
 <trip depart="0" from="1010508082" id="t116" to="257423660#1" type="taxi"/>
 <trip depart="0" from="117639101#0" id="t117" to="24428921" type="taxi"/>
 <trip depart="0" from="53682403#2" id="t118" to="-76987970" type="taxi"/>
 <trip depart="0" from="30528972#0" id="t119" to="83163097#1" type="taxi"/>
 <trip depart="0" from="-122529094#10" id="t120" to="-22604699#1" type="taxi"/>
 <trip depart="0" from="98158885#2" id="t121" to="38674850" type="taxi"/>
 <trip depart="0" from="-57078728" id="t122" to="366616515" type="taxi"/>
 <trip depart="0" from="-53682403#1" id="t123" to="365469908" type="taxi"/>
 <trip depart="0" from="408861540" id="t124" to="-83488850" type="taxi"/>
 <trip depart="0" from="126709272#2" id="t125" to="-4485415" type="taxi"/>
 <trip depart="0" from="83488859" id="t126" to="28912203" type="taxi"/>
 <trip depart="0" from="-24399330#1" id="t127" to="-24031456#6" type="taxi"/>
 <trip depart="0" from="121411753#0" id="t128" to="61371685#1" type="taxi"/>
 <trip depart="0" from="-314415287" id="t129" to="-416539515" type="taxi"/>
 <trip depart="0" from="-10425858" id="t130" to="-83187094" type="taxi"/>
 <trip depart="0" from="28377479#0" id="t131" to="-234088653#0" type="taxi"/>
 <trip depart="0" from="33826298" id="t132" to="-61984349#0" type="taxi"/>
 <trip depart="0" from="-21052315#0" id="t133" to="-10372364#0" type="taxi"/>
 <trip depart="0" from="-118155453" id="t134" to="-61367443" type="taxi"/>
 <trip depart="0" from="53682409" id="t135" to="-136864086" type="taxi"/>
 <trip depart="0" from="26369585" id="t136" to="217763498#2" type="taxi"/>
 <trip depart="0" from="51340803#1" id="t137" to="-83488857#0" type="taxi"/>
 <trip depart="0" from="4273621" id="t138" to="126709272#1" type="taxi"/>
 <trip depart="0" from="121411749#0" id="t139" to="-328253309#0" type="taxi"/>
 <trip depart="0" from="929213813" id="t140" to="-83488866" type="taxi"/>
 <trip depart="0" from="14571572" id="t141" to="78343358#1" type="taxi"/>
 <trip depart="0" from="-28656717" id="t142" to="5095171" type="taxi"/>
 <trip depart="0" from="58421454" id="t143" to="-63134322#0" type="taxi"/>
 <trip depart="0" from="286340278" id="t144" to="83163114#1" type="taxi"/>
 <trip depart="0" from="61982178#0" id="t145" to="26369517" type="taxi"/>
 <trip depart="0" from="331540389#1" id="t146" to="138037519" type="taxi"/>
 <trip depart="0" from="116049788#1" id="t147" to="58097865" type="taxi"/>
 <trip depart="0" from="125351165#1" id="t148" to="-117656067#0" type="taxi"/>
 <trip depart="0" from="-233171094#3" id="t149" to="286175728" type="taxi"/>
 <trip depart="0" from="117639101#0" id="t150" to="-117649887" type="taxi"/>
 <trip depart="0" from="-10425858" id="t151" to="-169313833#3" type="taxi"/>
 <trip depart="0" from="-1069054067" id="t152" to="35062429#0" type="taxi"/>
 <trip depart="0" from="-122529110" id="t153" to="-96700281" type="taxi"/>
 <trip depart="0" from="104147692" id="t154" to="-24398203#2" type="taxi"/>
 <trip depart="0" from="87525116" id="t155" to="-26367999" type="taxi"/>
 <trip depart="0" from="365469908" id="t156" to="-84639212" type="taxi"/>
 <trip depart="0" from="61568101#1" id="t157" to="-5234378" type="taxi"/>
 <trip depart="0" from="-234088653#0" id="t158" to="24466644#0" type="taxi"/>
 <trip depart="0" from="26349564#2" id="t159" to="136721679#2" type="taxi"/>
 <trip depart="0" from="-10426204#1" id="t160" to="63322106#1" type="taxi"/>
 <trip depart="0" from="906802009" id="t161" to="133104420#0" type="taxi"/>
 <trip depart="0" from="-42928295" id="t162" to="5230785" type="taxi"/>
 <trip depart="0" from="169313833#0" id="t163" to="-61982177#0" type="taxi"/>
 <trip depart="0" from="44503434#1" id="t164" to="-26369585" type="taxi"/>
 <trip depart="0" from="117649872" id="t165" to="-53357944" type="taxi"/>
 <trip depart="0" from="26187880#0" id="t166" to="-28918381#1" type="taxi"/>
 <trip depart="0" from="-5095168" id="t167" to="126449238" type="taxi"/>
 <trip depart="0" from="-74693877" id="t168" to="25153030" type="taxi"/>
 <person depart="4.0" id="p0">
  <ride from="-38807023" lines="taxi" parkingArea="pa104147692" to="104147692"/>
 </person>
 <trip depart="4.0" departLane="best" departSpeed="max" from="-26037066" id="rs_c000_i000_49" to="58423646"/>
 <trip depart="7.0" departLane="best" departSpeed="max" from="5231759" id="rs_c000_i000_81" to="29970080#0"/>
 <trip depart="13.0" departLane="best" departSpeed="max" from="-117654815#1" id="rs_c000_i000_148" to="25980639"/>
 <trip depart="17.0" departLane="best" departSpeed="max" from="-137996247" id="rs_c000_i000_194" to="58423646"/>
 <person depart="18.0" id="p1">
  <ride from="-63134322#1" lines="taxi" parkingArea="pa117654824#0" to="117654824#0"/>
 </person>
 <person depart="23.0" id="p2">
  <ride from="-122529098#1" lines="taxi" parkingArea="pa26187757#1" to="26187757#1"/>
 </person>
 <person depart="26.0" id="p3">
  <ride from="43263108" lines="taxi" parkingArea="pa30471451" to="30471451"/>
 </person>
 <trip depart="27.0" departLane="best" departSpeed="max" from="-74011129#0" id="rs_c000_i001_35" to="25980639"/>
 <person depart="33.0" id="p4">
  <ride from="290255300" lines="taxi" parkingArea="pa58423646" to="58423646"/>
 </person>
 <trip depart="34.0" departLane="best" departSpeed="max" from="1080298604" id="rs_c001_i000_68" to="234899446"/>
 <trip depart="38.0" departLane="best" departSpeed="max" from="-62106322#0" id="rs_c000_i001_5_part1" to="25980639"/>
 <trip depart="38.0" departLane="best" departSpeed="max" from="-5067354#1" id="rs_c000_i000_437" to="34760663"/>
 <person depart="41.0" id="p5">
  <ride from="10557712" lines="taxi" parkingArea="pa1081179231" to="1081179231"/>
 </person>
 <trip depart="43.0" departLane="best" departSpeed="max" from="-10426204#1" id="rs_c001_i000_90" to="35062429#0"/>
 <person depart="47.0" id="p6">
  <ride from="-136721671" lines="taxi" parkingArea="pa58423646" to="58423646"/>
 </person>
 <trip depart="49.0" departLane="best" departSpeed="max" from="-286243203#1" id="rs_c000_i000_554" to="24405134"/>
 <trip depart="52.0" departLane="best" departSpeed="max" from="-118869284#1" id="rs_c000_i000_598" to="144246396#1"/>
 <trip depart="55.0" departLane="best" departSpeed="max" from="-61566225#0" id="rs_c000_i000_653" to="30471451"/>
 <trip depart="56.0" departLane="best" departSpeed="max" from="4273624" id="rs_c000_i000_657" to="1081179231"/>
 <trip depart="57.0" departLane="best" departSpeed="max" from="26369517" id="rs_c000_i001_73" to="234899446"/>
 <trip depart="57.0" departLane="best" departSpeed="max" from="61496433" id="rs_c000_i001_79" to="28230831"/>
 <trip depart="57.0" departLane="best" departSpeed="max" from="462046218" id="rs_c000_i000_673" to="38455846"/>
 <trip depart="57.0" departLane="best" departSpeed="max" from="24031456#4" id="rs_c000_i000_681" to="58423646"/>
 <person depart="60.0" id="p7">
  <ride from="-15242127#1" lines="taxi" parkingArea="pa1081179231" to="1081179231"/>
 </person>
 <trip depart="67.0" departLane="best" departSpeed="max" from="51340803#1" id="rs_c000_i000_444" to="139124541#0"/>
 <person depart="74.0" id="p8">
  <ride from="24487041" lines="taxi" parkingArea="pa-330920155" to="-330920155"/>
 </person>
 <trip depart="75.0" departLane="best" departSpeed="max" from="-328253309#0" id="rs_c000_i001_110" to="362987791#0"/>
 <trip depart="76.0" departLane="best" departSpeed="max" from="-211208696#0" id="rs_c000_i001_20" to="102332984#0"/>
 <person depart="76.0" id="p9">
  <ride from="117099159#2" lines="taxi" parkingArea="pa58423646" to="58423646"/>
 </person>
 <person depart="77.0" id="p10">
  <ride from="4226192#2" lines="taxi" parkingArea="pa234899446" to="234899446"/>
 </person>
 <trip depart="78.0" departLane="best" departSpeed="max" from="-96809683#1" id="rs_c000_i000_912" to="58423646"/>
 <trip depart="79.0" departLane="best" departSpeed="max" from="-211208696#0" id="rs_c000_i000_161" to="102332984#0"/>
 <trip depart="80.0" departLane="best" departSpeed="max" from="96915239#1" id="rs_c000_i000_928" to="58423646"/>
 <trip depart="81.0" departLane="best" departSpeed="max" from="51340803#1" id="rs_c000_i000_920" to="139124541#0"/>
 <trip depart="82.0" departLane="best" departSpeed="max" from="-5234278#1" id="rs_c000_i000_940" to="102332984#0"/>
 <trip depart="82.0" departLane="best" departSpeed="max" from="-136721672" id="rs_c000_i000_947" to="26187757#1"/>
 <person depart="86.0" id="p11">
  <ride from="83163114#1" lines="taxi" parkingArea="pa39139679" to="39139679"/>
 </person>
 <trip depart="92.0" departLane="best" departSpeed="max" from="-26127182#1" id="rs_c000_i000_1060" to="26187755#0"/>
 <trip depart="96.0" departLane="best" departSpeed="max" from="-14573382#2" id="rs_c001_i000_205" to="35062429#0"/>
 <trip depart="98.0" departLane="best" departSpeed="max" from="-83497364" id="rs_c000_i000_1132" to="1081179231"/>
 <trip depart="103.0" departLane="best" departSpeed="max" from="-4361529#0" id="rs_c001_i002_4" to="24428921"/>
 <person depart="105.0" id="p12">
  <ride from="-211208696#0" lines="taxi" parkingArea="pa234899446" to="234899446"/>
 </person>
 <trip depart="107.0" departLane="best" departSpeed="max" from="-34777320" id="rs_c000_i000_1213" to="26187757#1"/>
 <trip depart="107.0" departLane="best" departSpeed="max" from="83163097#1" id="rs_c001_i000_228" to="234899446"/>
 <trip depart="114.76" departLane="best" departSpeed="max" from="-30471451" id="rs_c000_i000_228_part1" to="60727164#1"/>
 <person depart="121.0" id="p13">
  <ride from="26369585" lines="taxi" parkingArea="pa102332984#0" to="102332984#0"/>
 </person>
 <trip depart="122.0" departLane="best" departSpeed="max" from="42793238#0" id="rs_c000_i000_1376" to="117654824#0"/>
 <person depart="124.0" id="p14">
  <ride from="310738357" lines="taxi" parkingArea="pa1081179231" to="1081179231"/>
 </person>
 <person depart="125.0" id="p15">
  <ride from="5095190#0" lines="taxi" parkingArea="pa34760663" to="34760663"/>
 </person>
 <trip depart="126.0" departLane="best" departSpeed="max" from="-95937728#1" id="rs_c000_i000_508" to="144246396#1"/>
 <trip depart="127.0" departLane="best" departSpeed="max" from="136864086" id="rs_c000_i000_1442" to="58423646"/>
 <trip depart="128.0" departLane="best" departSpeed="max" from="-118155453" id="rs_c000_i001_193" to="58423646"/>
 <person depart="129.0" id="p16">
  <ride from="-211120148" lines="taxi" parkingArea="pa35062429#0" to="35062429#0"/>
 </person>
 <person depart="133.0" id="p17">
  <ride from="-79690674#0" lines="taxi" parkingArea="pa34760663" to="34760663"/>
 </person>
 <trip depart="134.0" departLane="best" departSpeed="max" from="-117099153" id="rs_c000_i000_1508" to="-117099159#0"/>
 <trip depart="136.0" departLane="best" departSpeed="max" from="10559201" id="rs_c000_i001_200" to="35062429#0"/>
 <person depart="137.0" id="p18">
  <ride from="-314424813" lines="taxi" parkingArea="pa104147692" to="104147692"/>
 </person>
 <trip depart="141.0" departLane="best" departSpeed="max" from="-95937728#1" id="rs_c000_i000_1064" to="144246396#1"/>
 <trip depart="142.0" departLane="best" departSpeed="max" from="26085515#5" id="rs_c000_i000_1609" to="58423646"/>
 <trip depart="143.0" departLane="best" departSpeed="max" from="4492786" id="rs_c000_i000_1621" to="102332984#0"/>
 <trip depart="144.0" departLane="best" departSpeed="max" from="-24399325#0" id="rs_c000_i000_1607" to="24428921"/>
 <person depart="145.0" id="p19">
  <ride from="-83510232#0" lines="taxi" parkingArea="pa234899446" to="234899446"/>
 </person>
 <trip depart="146.0" departLane="best" departSpeed="max" from="-328040089" id="rs_c000_i000_1649" to="5091199"/>
 <trip depart="147.85" departLane="best" departSpeed="max" from="35062276" id="rs_c001_i000_25" to="234899446"/>
 <person depart="148.0" id="p20">
  <ride from="137996244#0" lines="taxi" parkingArea="pa24428921" to="24428921"/>
 </person>
 <trip depart="149.0" departLane="best" departSpeed="max" from="-95937728#1" id="rs_c000_i000_253" to="144246396#1"/>
 <trip depart="151.0" departLane="best" departSpeed="max" from="-211120148" id="rs_c000_i001_114" to="35062429#0"/>
 <trip depart="153.0" departLane="best" departSpeed="max" from="-79690674#0" id="rs_c001_i000_195" to="34760663"/>
 <person depart="154.0" id="p21">
  <ride from="-95937943#2" lines="taxi" parkingArea="pa24428921" to="24428921"/>
 </person>
 <trip depart="167.0" departLane="best" departSpeed="max" from="-5234280#0" id="rs_c000_i000_1879" to="38455846"/>
 <trip depart="169.0" departLane="best" departSpeed="max" from="-328813517" id="rs_c001_i000_320" to="234899446"/>
 <trip depart="170.7" departLane="best" departSpeed="max" from="-30471451" id="rs_c000_i001_157" to="60727164#1"/>
 <person depart="171.0" id="p22">
  <ride from="5234587" lines="taxi" parkingArea="pa35062429#0" to="35062429#0"/>
 </person>
 <trip depart="172.0" departLane="best" departSpeed="max" from="5095197#1" id="rs_c000_i001_264" to="34760663"/>
 <person depart="176.0" id="p23">
  <ride from="-366308474" lines="taxi" parkingArea="pa30471451" to="30471451"/>
 </person>
 <person depart="176.0" id="p24">
  <ride from="8102482" lines="taxi" parkingArea="pa24429380-AddedOffRampEdge" to="24429380-AddedOffRampEdge"/>
 </person>
 <trip depart="178.21" departLane="best" departSpeed="max" from="62059875#1" id="rs_c001_i000_138" to="138914231#0"/>
 <trip depart="181.0" departLane="best" departSpeed="max" from="118869284#0" id="rs_c000_i000_2018" to="26187755#0"/>
 <trip depart="189.0" departLane="best" departSpeed="max" from="-118869284#1" id="rs_c000_i000_2091" to="144246396#1"/>
 <person depart="193.0" id="p25">
  <ride from="-211208696#0" lines="taxi" parkingArea="pa234899446" to="234899446"/>
 </person>
 <trip depart="195.0" departLane="best" departSpeed="max" from="-10426011#1" id="rs_c000_i000_2147" to="139124541#0"/>
 <trip depart="196.0" departLane="best" departSpeed="max" from="285621686" id="rs_c000_i001_292" to="34760663"/>
 <trip depart="197.0" departLane="best" departSpeed="max" from="-59683236#1" id="rs_c000_i000_2163" to="58425043"/>
 <trip depart="197.0" departLane="best" departSpeed="max" from="-87397780" id="rs_c000_i001_293" to="1081179231"/>
 <trip depart="198.0" departLane="best" departSpeed="max" from="321098632#1" id="rs_c000_i000_2183" to="362987791#0"/>
 <person depart="199.0" id="p26">
  <ride from="83163132" lines="taxi" parkingArea="pa234899446" to="234899446"/>
 </person>
 <trip depart="200.0" departLane="best" departSpeed="max" from="-136721672" id="rs_c000_i000_2199" to="26187757#1"/>
 <trip depart="201.0" departLane="best" departSpeed="max" from="-929213813" id="rs_c000_i000_2221" to="58423646"/>
 <trip depart="207.0" departLane="best" departSpeed="max" from="-95937728#1" id="rs_c000_i000_698" to="144246396#1"/>
 <trip depart="209.0" departLane="best" departSpeed="max" from="-211208696#0" id="rs_c000_i001_206" to="234899446"/>
 <trip depart="209.0" departLane="best" departSpeed="max" from="-765843955" id="rs_c000_i000_2309" to="362987791#0"/>
 <trip depart="210.0" departLane="best" departSpeed="max" from="-9604697" id="rs_c000_i000_2321" to="39139679"/>
 <person depart="213.0" id="p27">
  <ride from="300981184#1" lines="taxi" parkingArea="pa104147692" to="104147692"/>
 </person>
 <person depart="214.0" id="p28">
  <ride from="-313693701" lines="taxi" parkingArea="pa39139679" to="39139679"/>
 </person>
 <trip depart="214.0" departLane="best" departSpeed="max" from="-369150317#0" id="rs_c000_i000_2371" to="58423646"/>
 <trip depart="216.0" departLane="best" departSpeed="max" from="-116049442" id="rs_c000_i000_2391" to="26187757#1"/>
 <person depart="218.0" id="p29">
  <ride from="183247520" lines="taxi" parkingArea="pa35062429#0" to="35062429#0"/>
 </person>
 <person depart="219.0" id="p30">
  <ride from="-62106322#0" lines="taxi" parkingArea="pa25980639" to="25980639"/>
 </person>
 <trip depart="219.0" departLane="best" departSpeed="max" from="906802009" id="rs_c001_i000_425" to="234899446"/>
 <trip depart="219.0" departLane="best" departSpeed="max" from="-26165754#2" id="rs_c001_i000_427" to="58423646"/>
 <trip depart="225.49" departLane="best" departSpeed="max" from="-30471451" id="rs_c001_i000_256" to="60727164#1"/>
 <trip depart="232.0" departLane="best" departSpeed="max" from="4229427#1" id="rs_c000_i000_2546" to="362987791#0"/>
 <trip depart="232.0" departLane="best" departSpeed="max" from="-233171094#0" id="rs_c000_i000_2547" to="34760663"/>
 <trip depart="238.0" departLane="best" departSpeed="max" from="117099147#0" id="rs_c000_i000_2613" to="58423646"/>
 <trip depart="238.0" departLane="best" departSpeed="max" from="78535798#0" id="rs_c000_i000_2617" to="60727164#1"/>
 <trip depart="238.0" departLane="best" departSpeed="max" from="-237837493#0" id="rs_c000_i000_2622" to="39139679"/>
 <person depart="241.0" id="p31">
  <ride from="-20179292#0" lines="taxi" parkingArea="pa530282943" to="530282943"/>
 </person>
 <trip depart="242.0" departLane="best" departSpeed="max" from="-10426171#1" id="rs_c001_i000_473" to="35062429#0"/>
 <trip depart="242.0" departLane="best" departSpeed="max" from="97097111#1" id="rs_c001_i001_59" to="104147692"/>
 <person depart="242.0" id="p32">
  <ride from="8064520" lines="taxi" parkingArea="pa30471451" to="30471451"/>
 </person>
 <person depart="243.03" id="p33">
  <ride from="62059875#1" lines="taxi" parkingArea="pa34760663" to="34760663"/>
 </person>
 <trip depart="250.0" departLane="best" departSpeed="max" from="59699456" id="rs_c000_i000_2742" to="39139679"/>
 <person depart="251.03" id="p34">
  <ride from="240100844#0" lines="taxi" parkingArea="pa530282943" to="530282943"/>
 </person>
 <person depart="254.0" id="p35">
  <ride from="-61565968" lines="taxi" parkingArea="pa30326722" to="30326722"/>
 </person>
 <trip depart="259.0" departLane="best" departSpeed="max" from="95100622" id="rs_c000_i000_2851" to="26187757#1"/>
 <trip depart="260.0" departLane="best" departSpeed="max" from="-15242129#0" id="rs_c000_i001_391" to="38455846"/>
 <trip depart="261.0" departLane="best" departSpeed="max" from="125351110" id="rs_c000_i000_2871" to="144246396#1"/>
 <trip depart="262.0" departLane="best" departSpeed="max" from="-136721679#0" id="rs_c000_i000_2889" to="26187757#1"/>
 <trip depart="262.0" departLane="best" departSpeed="max" from="-63134322#1" id="rs_c000_i001_400" to="25980639"/>
 <trip depart="263.0" departLane="best" departSpeed="max" from="301503168#1" id="rs_c000_i000_2206" to="35061798"/>
 <person depart="265.0" id="p36">
  <ride from="-10372364#0" lines="taxi" parkingArea="pa102332984#0" to="102332984#0"/>
 </person>
 <trip depart="266.0" departLane="best" departSpeed="max" from="-211120148" id="rs_c001_i000_370" to="35062429#0"/>
 <person depart="266.0" id="p37">
  <ride from="-212694591" lines="taxi" parkingArea="pa26187755#0" to="26187755#0"/>
 </person>
 <trip depart="267.0" departLane="best" departSpeed="max" from="166533654#1" id="rs_c000_i000_2936" to="139124541#0"/>
 <trip depart="268.0" departLane="best" departSpeed="max" from="-301127378" id="rs_c000_i000_2948" to="26187757#1"/>
 <trip depart="269.0" departLane="best" departSpeed="max" from="98236882#1" id="rs_c001_i000_511" to="60727164#1"/>
 <trip depart="270.0" departLane="best" departSpeed="max" from="-50044720#1" id="rs_c000_i001_409" to="38455846"/>
 <trip depart="272.0" departLane="best" departSpeed="max" from="-95937728#1" id="rs_c000_i000_1946" to="144246396#1"/>
 <trip depart="273.0" departLane="best" departSpeed="max" from="73225130#1" id="rs_c001_i000_520" to="24429380-AddedOffRampEdge"/>
 <trip depart="273.0" departLane="best" departSpeed="max" from="83506741" id="rs_c000_i000_3027" to="60727164#1"/>
 <trip depart="274.51" departLane="best" departSpeed="max" from="-30471451" id="rs_c000_i001_196" to="60727164#1"/>
 <person depart="274.87" id="p38">
  <ride from="-30471451" lines="taxi" parkingArea="pa362987791#0" to="362987791#0"/>
 </person>
 <trip depart="277.78" departLane="best" departSpeed="max" from="240100844#0" id="rs_c001_i000_160" to="530282943"/>
 <trip depart="280.0" departLane="best" departSpeed="max" from="301503168#1" id="rs_c000_i000_2410" to="35061798"/>
 <trip depart="285.0" departLane="best" departSpeed="max" from="-301127378" id="rs_c000_i001_435" to="35062429#0"/>
 <person depart="288.57" id="p39">
  <ride from="38674850" lines="taxi" parkingArea="pa38674844" to="38674844"/>
 </person>
 <trip depart="290.0" departLane="best" departSpeed="max" from="-14434303" id="rs_c001_i000_551" to="35062429#0"/>
 <person depart="292.0" id="p40">
  <ride from="35772871" lines="taxi" parkingArea="pa104147692" to="104147692"/>
 </person>
 <trip depart="293.0" departLane="best" departSpeed="max" from="-224710093#0" id="rs_c000_i000_3232" to="530282943"/>
 <trip depart="293.0" departLane="best" departSpeed="max" from="-78343357" id="rs_c000_i000_3235" to="117654824#0"/>
 <trip depart="294.0" departLane="best" departSpeed="max" from="4229427#2" id="rs_c001_i000_561" to="60727164#1"/>
 <trip depart="296.0" departLane="best" departSpeed="max" from="62059875#1" id="rs_c001_i000_51" to="34760663"/>