<?xml version="1.0" encoding="utf-8"?>
<routes>
 <vType color="green" id="taxi" personCapacity="2" vClass="taxi">
  <param key="has.taxi.device" value="true"/>
  <param key="device.taxi.pickUpDuration" value="0"/>
  <param key="device.taxi.dropOffDuration" value="10"/>
  <param key="device.taxi.parking" value="true"/>
 </vType>
 <trip depart="0" from="314252679" id="t97" to="97097111#1" type="taxi"/>
 <trip depart="0" from="61371680#1" id="t96" to="-314424813" type="taxi"/>
 <trip depart="0" from="24405134" id="t95" to="-245623696#2" type="taxi"/>
 <trip depart="0" from="5095133#0" id="t94" to="-26368085" type="taxi"/>
 <trip depart="0" from="217695968#1" id="t93" to="5095190#1" type="taxi"/>
 <trip depart="0" from="-15242126" id="t92" to="26187880#0" type="taxi"/>
 <trip depart="0" from="83163119" id="t91" to="26240196" type="taxi"/>
 <trip depart="0" from="-217696288#1" id="t90" to="-147141239" type="taxi"/>
 <trip depart="0" from="142497095" id="t89" to="24428915" type="taxi"/>
 <trip depart="0" from="-121411748#1" id="t88" to="-57726373#0" type="taxi"/>
 <trip depart="0" from="24428915" id="t87" to="37523549#0" type="taxi"/>
 <trip depart="0" from="-626942404#0" id="t86" to="-1069054067" type="taxi"/>
 <trip depart="0" from="118155456#1" id="t85" to="35062276" type="taxi"/>
 <trip depart="0" from="-34777320" id="t84" to="626942404#1" type="taxi"/>
 <trip depart="0" from="30690511" id="t83" to="-188890214" type="taxi"/>
 <trip depart="0" from="-83508584" id="t82" to="852319714#0" type="taxi"/>
 <trip depart="0" from="-20179292#1" id="t81" to="-26165754#1" type="taxi"/>
 <trip depart="0" from="-4229445" id="t80" to="20826774" type="taxi"/>
 <trip depart="0" from="-122529096#6" id="t79" to="17265675" type="taxi"/>
 <trip depart="0" from="95937943#1" id="t78" to="94107470" type="taxi"/>
 <trip depart="0" from="26240196" id="t77" to="76737569" type="taxi"/>
 <trip depart="0" from="15242128#1" id="t76" to="117623505" type="taxi"/>
 <trip depart="0" from="-63116620#1" id="t75" to="-117643624" type="taxi"/>
 <trip depart="0" from="117656067#0" id="t74" to="-138350780#0" type="taxi"/>
 <trip depart="0" from="-313693701" id="t73" to="-94194703" type="taxi"/>
 <trip depart="0" from="-61367455" id="t72" to="132817972" type="taxi"/>
 <trip depart="0" from="97694266" id="t71" to="24405134" type="taxi"/>
 <trip depart="0" from="362993459" id="t70" to="-81646465#1" type="taxi"/>
 <trip depart="0" from="654803140" id="t69" to="83510232#1" type="taxi"/>
 <trip depart="0" from="-62106322#0" id="t68" to="116049443#2" type="taxi"/>
 <trip depart="0" from="39297416" id="t67" to="-286175728" type="taxi"/>
 <trip depart="0" from="-16345612#0" id="t66" to="-61279843" type="taxi"/>
 <trip depart="0" from="-94087971" id="t65" to="-63116710#0" type="taxi"/>
 <trip depart="0" from="129719998" id="t64" to="-4233645#0" type="taxi"/>
 <trip depart="0" from="132047190" id="t63" to="-302856367#0" type="taxi"/>
 <trip depart="0" from="4229427#2" id="t62" to="116049443#1" type="taxi"/>
 <trip depart="0" from="132817964" id="t61" to="-61367436#1" type="taxi"/>
 <trip depart="0" from="122529102#2" id="t60" to="-42792917#1" type="taxi"/>
 <trip depart="0" from="-42792917#0" id="t59" to="132852432" type="taxi"/>
 <trip depart="0" from="96596615#1" id="t58" to="404119038" type="taxi"/>
 <trip depart="0" from="118864079#4" id="t57" to="117656067#0" type="taxi"/>
 <trip depart="0" from="24398203#1" id="t56" to="4643592" type="taxi"/>
 <trip depart="0" from="153716515" id="t55" to="4232320" type="taxi"/>
 <trip depart="0" from="-61495638" id="t54" to="154150880#1" type="taxi"/>
 <trip depart="0" from="25976329#0" id="t53" to="-26037066" type="taxi"/>
 <trip depart="0" from="-52291443" id="t52" to="35772871" type="taxi"/>
 <trip depart="0" from="35061795" id="t51" to="1006265805#0" type="taxi"/>
 <trip depart="0" from="-16345605#0" id="t50" to="169313833#1" type="taxi"/>
 <trip depart="0" from="-96559363" id="t49" to="-63116648#1" type="taxi"/>
 <trip depart="0" from="75869950" id="t48" to="-20179292#1" type="taxi"/>
 <trip depart="0" from="84639229#1" id="t47" to="117099153" type="taxi"/>
 <trip depart="0" from="-8102548" id="t46" to="-61371685#0" type="taxi"/>
 <trip depart="0" from="-83508584" id="t45" to="15242128#0" type="taxi"/>
 <trip depart="0" from="-24405231#1" id="t44" to="-61495638" type="taxi"/>
 <trip depart="0" from="-38807023" id="t43" to="-39071853" type="taxi"/>
 <trip depart="0" from="286243203#0" id="t42" to="290255303#2" type="taxi"/>
 <trip depart="0" from="-117624636#1" id="t41" to="286243202" type="taxi"/>
 <trip depart="0" from="118864084" id="t40" to="-17265677" type="taxi"/>
 <trip depart="0" from="283762346" id="t39" to="117643616" type="taxi"/>
 <trip depart="0" from="-331440628" id="t38" to="51722315#1" type="taxi"/>
 <trip depart="0" from="117099156#1" id="t37" to="117099159#0" type="taxi"/>
 <trip depart="0" from="116049443#1" id="t36" to="129719998" type="taxi"/>
 <trip depart="0" from="-26040356#0" id="t35" to="-22982190" type="taxi"/>
 <trip depart="0" from="122529102#0" id="t34" to="-117643624" type="taxi"/>
 <trip depart="0" from="5234464" id="t33" to="-127207622" type="taxi"/>
 <trip depart="0" from="5086872" id="t32" to="-61367455" type="taxi"/>
 <trip depart="0" from="-50044720#1" id="t31" to="5234766" type="taxi"/>
 <trip depart="0" from="-15242125" id="t30" to="-193640980" type="taxi"/>
 <trip depart="0" from="122529094#4" id="t29" to="132817972" type="taxi"/>
 <trip depart="0" from="39139694" id="t28" to="33826299" type="taxi"/>
 <trip depart="0" from="-24398612" id="t27" to="-59603306" type="taxi"/>
 <trip depart="0" from="-122529110" id="t26" to="159761037" type="taxi"/>
 <trip depart="0" from="-84018033" id="t25" to="28912317#3" type="taxi"/>
 <trip depart="0" from="-116049443#1" id="t24" to="94107470" type="taxi"/>
 <trip depart="0" from="557399294" id="t23" to="285621704" type="taxi"/>
 <trip depart="0" from="-84639212" id="t22" to="63116710#1" type="taxi"/>
 <trip depart="0" from="136867909" id="t21" to="-4229445" type="taxi"/>
 <trip depart="0" from="-61367412" id="t20" to="58097865" type="taxi"/>
 <trip depart="0" from="103302381" id="t19" to="-61491725" type="taxi"/>
 <trip depart="0" from="-75869948" id="t18" to="-117643614#1" type="taxi"/>
 <trip depart="0" from="707213263#0" id="t17" to="95916459" type="taxi"/>
 <trip depart="0" from="118864079#5" id="t16" to="30098518" type="taxi"/>
 <trip depart="0" from="-300060711" id="t15" to="-136721679#0" type="taxi"/>
 <trip depart="0" from="237386917#0" id="t14" to="-10426204#0" type="taxi"/>
 <trip depart="0" from="-4353778#3" id="t13" to="-286243200" type="taxi"/>
 <trip depart="0" from="34760663" id="t12" to="121411749#1" type="taxi"/>
 <trip depart="0" from="5234278#2" id="t11" to="24399325#1" type="taxi"/>
 <trip depart="0" from="-16345605#1" id="t10" to="5234274" type="taxi"/>
 <trip depart="0" from="10426171#0" id="t9" to="-15242125" type="taxi"/>
 <trip depart="0" from="-117654826" id="t8" to="-122529114#2" type="taxi"/>
 <trip depart="0" from="-81646465#1" id="t7" to="32461045#3" type="taxi"/>
 <trip depart="0" from="-22762570" id="t6" to="122529096#7" type="taxi"/>
 <trip depart="0" from="300981184#1" id="t5" to="-24429415" type="taxi"/>
 <trip depart="0" from="-61982178#0" id="t4" to="40801556" type="taxi"/>
 <trip depart="0" from="-138037516" id="t3" to="-83163097#0" type="taxi"/>
 <trip depart="0" from="443551693" id="t2" to="-52291443" type="taxi"/>
 <trip depart="0" from="122529101" id="t1" to="210457775#0" type="taxi"/>
 <trip depart="0" from="60104143" id="t0" to="24407716" type="taxi"/>
 <trip depart="7.0" departLane="best" departSpeed="max" from="5231759" id="rs_c000_i000_81" to="29970080#0"/>
 <trip depart="20.0" departLane="best" departSpeed="max" from="-61367432" id="rs_c000_i000_245" to="104147692"/>
 <person depart="24.0" id="p0">
  <ride from="219528064" lines="taxi" parkingArea="pa234899446" to="234899446"/>
 </person>
 <person depart="48.0" id="p1">
  <ride from="-116049439#1" lines="taxi" parkingArea="pa26187757#1" to="26187757#1"/>
 </person>
 <trip depart="51.0" departLane="best" departSpeed="max" from="51340803#1" id="rs_c001_i000_35" to="35062429#0"/>
 <trip depart="52.0" departLane="best" departSpeed="max" from="-118869284#1" id="rs_c000_i000_598" to="144246396#1"/>
 <trip depart="55.0" departLane="best" departSpeed="max" from="-61566225#0" id="rs_c000_i000_653" to="30471451"/>
 <trip depart="57.0" departLane="best" departSpeed="max" from="24031456#4" id="rs_c000_i000_681" to="58423646"/>
 <trip depart="58.0" departLane="best" departSpeed="max" from="-118155456#2" id="rs_c000_i000_685" to="26187757#1"/>
 <trip depart="69.0" departLane="best" departSpeed="max" from="-147136167" id="rs_c001_i000_155" to="35062429#0"/>
 <person depart="79.0" id="p2">
  <ride from="-211208696#0" lines="taxi" parkingArea="pa102332984#0" to="102332984#0"/>
 </person>
 <trip depart="79.0" departLane="best" departSpeed="max" from="-63322102#1" id="rs_c000_i000_918" to="25980639"/>
 <trip depart="82.0" departLane="best" departSpeed="max" from="-5234278#1" id="rs_c000_i000_940" to="102332984#0"/>
 <trip depart="85.0" departLane="best" departSpeed="max" from="-188890214" id="rs_c000_i000_971" to="28377479#0"/>
 <trip depart="86.0" departLane="best" departSpeed="max" from="83163114#1" id="rs_c000_i000_990" to="39139679"/>
 <person depart="89.0" id="p3">
  <ride from="26369585" lines="taxi" parkingArea="pa-61997814#0" to="-61997814#0"/>
 </person>
 <trip depart="91.0" departLane="best" departSpeed="max" from="51340803#1" id="rs_c001_i000_59" to="35062429#0"/>
 <trip depart="91.0" departLane="best" departSpeed="max" from="183247520" id="rs_c000_i001_131" to="35062429#0"/>
 <trip depart="92.0" departLane="best" departSpeed="max" from="-328266345" id="rs_c000_i000_1050" to="102332984#0"/>
 <trip depart="92.0" departLane="best" departSpeed="max" from="-26127182#1" id="rs_c000_i000_1060" to="26187755#0"/>
 <trip depart="93.0" departLane="best" departSpeed="max" from="4643592" id="rs_c000_i001_133" to="362987791#0"/>
 <trip depart="96.0" departLane="best" departSpeed="max" from="15242129#1" id="rs_c000_i000_1095" to="38455846"/>
 <trip depart="98.0" departLane="best" departSpeed="max" from="-83497364" id="rs_c000_i000_1132" to="1081179231"/>
 <trip depart="100.0" departLane="best" departSpeed="max" from="84017451#0" id="rs_c000_i000_1143" to="-330920155"/>
 <person depart="105.0" id="p4">
  <ride from="-211208696#0" lines="taxi" parkingArea="pa234899446" to="234899446"/>
 </person>
 <trip depart="105.0" departLane="best" departSpeed="max" from="-301127377" id="rs_c000_i000_1200" to="26187757#1"/>
 <trip depart="109.0" departLane="best" departSpeed="max" from="51340803#1" id="rs_c000_i001_146" to="139124541#0"/>
 <trip depart="112.0" departLane="best" departSpeed="max" from="-95937728#1" id="rs_c000_i000_782_part1" to="144246396#1"/>
 <person depart="118.0" id="p5">
  <ride from="-87397780" lines="taxi" parkingArea="pa1081179231" to="1081179231"/>
 </person>
 <trip depart="118.0" departLane="best" departSpeed="max" from="-136721667" id="rs_c000_i000_1338" to="26187757#1"/>
 <person depart="120.0" id="p6">
  <ride from="-117643624" lines="taxi" parkingArea="pa25980639" to="25980639"/>
 </person>
 <person depart="121.0" id="p7">
  <ride from="26369585" lines="taxi" parkingArea="pa102332984#0" to="102332984#0"/>
 </person>
 <person depart="121.0" id="p8">
  <ride from="5091199" lines="taxi" parkingArea="pa34760663" to="34760663"/>
 </person>
 <person depart="124.0" id="p9">
  <ride from="4244655" lines="taxi" parkingArea="pa102332984#0" to="102332984#0"/>
 </person>
 <trip depart="129.0" departLane="best" departSpeed="max" from="-39316011#1" id="rs_c000_i000_1471" to="286340282"/>
 <person depart="136.0" id="p10">
  <ride from="-95937728#1" lines="taxi" parkingArea="pa144246396#1" to="144246396#1"/>
 </person>
 <trip depart="142.0" departLane="best" departSpeed="max" from="26085515#5" id="rs_c000_i000_1609" to="58423646"/>
 <trip depart="144.0" departLane="best" departSpeed="max" from="-51722315#0" id="rs_c001_i000_293" to="117654824#0"/>
 <trip depart="149.0" departLane="best" departSpeed="max" from="-95937728#1" id="rs_c000_i000_253" to="144246396#1"/>
 <trip depart="156.0" departLane="best" departSpeed="max" from="-28840232#0" id="rs_c000_i000_1756" to="58423646"/>
 <trip depart="165.0" departLane="best" departSpeed="max" from="-234540368" id="rs_c000_i000_1853" to="38325510"/>
 <trip depart="169.0" departLane="best" departSpeed="max" from="-328813517" id="rs_c001_i000_320" to="234899446"/>
 <trip depart="171.0" departLane="best" departSpeed="max" from="462046218" id="rs_c001_i000_340" to="38455846"/>
 <trip depart="172.0" departLane="best" departSpeed="max" from="5095197#1" id="rs_c000_i001_264" to="34760663"/>
 <trip depart="174.0" departLane="best" departSpeed="max" from="-32016029#2" id="rs_c000_i000_1949" to="104147692"/>
 <person depart="176.0" id="p11">
  <ride from="-366308474" lines="taxi" parkingArea="pa30471451" to="30471451"/>
 </person>
 <person depart="178.0" id="p12">
  <ride from="-211120148" lines="taxi" parkingArea="pa35062429#0" to="35062429#0"/>
 </person>
 <trip depart="178.63" departLane="best" departSpeed="max" from="-30471451" id="rs_c001_i000_46" to="102332984#0"/>
 <person depart="181.0" id="p13">
  <ride from="118869284#0" lines="taxi" parkingArea="pa26187755#0" to="26187755#0"/>
 </person>
 <trip depart="187.0" departLane="best" departSpeed="max" from="14571550#1" id="rs_c000_i002_46" to="38455846"/>
 <trip depart="188.0" departLane="best" departSpeed="max" from="-644345091#0" id="rs_c001_i000_292" to="60727164#1"/>
 <trip depart="188.0" departLane="best" departSpeed="max" from="-125589533" id="rs_c000_i000_2081" to="530282943"/>
 <trip depart="198.0" departLane="best" departSpeed="max" from="321098632#1" id="rs_c000_i000_2183" to="362987791#0"/>
 <person depart="199.0" id="p14">
  <ride from="83163132" lines="taxi" parkingArea="pa234899446" to="234899446"/>
 </person>
 <person depart="203.0" id="p15">
  <ride from="-16345605#0" lines="taxi" parkingArea="pa35062429#0" to="35062429#0"/>
 </person>
 <person depart="203.0" id="p16">
  <ride from="-122529110" lines="taxi" parkingArea="pa144246396#1" to="144246396#1"/>
 </person>
 <trip depart="209.0" departLane="best" departSpeed="max" from="-765843955" id="rs_c000_i000_2309" to="362987791#0"/>
 <trip depart="214.0" departLane="best" departSpeed="max" from="-313693701" id="rs_c000_i000_2368" to="39139679"/>
 <person depart="214.0" id="p17">
  <ride from="-369150317#0" lines="taxi" parkingArea="pa58423646" to="58423646"/>
 </person>
 <trip depart="216.0" departLane="best" departSpeed="max" from="-116049442" id="rs_c000_i000_2391" to="26187757#1"/>
 <trip depart="217.0" departLane="best" departSpeed="max" from="10558745" id="rs_c000_i000_2397" to="104147692"/>
 <trip depart="218.0" departLane="best" departSpeed="max" from="4680630" id="rs_c000_i000_2403" to="104147692"/>
 <trip depart="228.0" departLane="best" departSpeed="max" from="-95937728#1" id="rs_c000_i000_1362" to="144246396#1"/>
 <trip depart="232.0" departLane="best" departSpeed="max" from="4229427#1" id="rs_c000_i000_2546" to="362987791#0"/>
 <trip depart="234.0" departLane="best" departSpeed="max" from="-306713165" id="rs_c000_i000_2568" to="38325510"/>
 <trip depart="241.0" departLane="best" departSpeed="max" from="-20179292#0" id="rs_c000_i000_2655" to="530282943"/>
 <trip depart="246.0" departLane="best" departSpeed="max" from="-330415869" id="rs_c000_i000_2700" to="38455846"/>
 <trip depart="247.0" departLane="best" departSpeed="max" from="35061795" id="rs_c001_i000_480" to="38325510"/>
 <person depart="252.0" id="p18">
  <ride from="-62070348" lines="taxi" parkingArea="pa30326722" to="30326722"/>
 </person>
 <trip depart="254.0" departLane="best" departSpeed="max" from="-61565968" id="rs_c001_i001_64" to="30326722"/>
 <trip depart="257.0" departLane="best" departSpeed="max" from="-79690674#0" id="rs_c001_i000_132" to="30471451"/>
 <trip depart="259.8" departLane="best" departSpeed="max" from="-30471451" id="rs_c001_i000_172" to="60727164#1"/>
 <trip depart="260.0" departLane="best" departSpeed="max" from="-15242129#0" id="rs_c000_i001_391" to="38455846"/>
 <person depart="262.0" id="p19">
  <ride from="-136721679#0" lines="taxi" parkingArea="pa26187757#1" to="26187757#1"/>
 </person>
 <person depart="263.0" id="p20">
  <ride from="301503168#1" lines="taxi" parkingArea="pa35061798" to="35061798"/>
 </person>
 <trip depart="269.0" departLane="best" departSpeed="max" from="98236882#1" id="rs_c001_i000_511" to="60727164#1"/>
 <person depart="270.0" id="p21">
  <ride from="-50044720#1" lines="taxi" parkingArea="pa38455846" to="38455846"/>
 </person>
 <person depart="272.33" id="p22">
  <ride from="-30471451" lines="taxi" parkingArea="pa362987791#0" to="362987791#0"/>
 </person>
 <person depart="278.0" id="p23">
  <ride from="56253839" lines="taxi" parkingArea="pa58425043" to="58425043"/>
 </person>
 <trip depart="281.0" departLane="best" departSpeed="max" from="51340803#1" id="rs_c000_i000_2577" to="35062429#0"/>
 <trip depart="281.0" departLane="best" departSpeed="max" from="-286404309" id="rs_c000_i001_426" to="58423646"/>
 <trip depart="285.0" departLane="best" departSpeed="max" from="-301127378" id="rs_c000_i001_435" to="35062429#0"/>
 <person depart="293.0" id="p24">
  <ride from="237386917#0" lines="taxi" parkingArea="pa-330920155" to="-330920155"/>
 </person>
 <trip depart="293.0" departLane="best" departSpeed="max" from="-78343357" id="rs_c000_i000_3235" to="117654824#0"/>
 <trip depart="294.0" departLane="best" departSpeed="max" from="4229427#2" id="rs_c001_i000_561" to="60727164#1"/>
 <trip depart="296.0" departLane="best" departSpeed="max" from="286243202" id="rs_c000_i000_3259" to="25980639"/>
 <trip depart="297.0" departLane="best" departSpeed="max" from="300981184#0" id="rs_c000_i000_3262" to="26187757#1"/>
 <trip depart="297.0" departLane="best" departSpeed="max" from="84656707#1" id="rs_c000_i000_3268" to="39139679"/>
 <trip depart="299.0" departLane="best" departSpeed="max" from="-24399330#1" id="rs_c001_i000_471" to="58423646"/>
 <trip depart="299.58" departLane="best" departSpeed="max" from="257423660#1" id="rs_c000_i000_1658" to="104147692"/>
 <trip depart="304.0" departLane="best" departSpeed="max" from="-125589533" id="rs_c001_i000_582" to="530282943"/>
 <trip depart="309.0" departLane="best" departSpeed="max" from="-126449297#1" id="rs_c000_i000_3399" to="362987791#0"/>
 <person depart="311.0" id="p25">
  <ride from="-290255303#2" lines="taxi" parkingArea="pa26187757#1" to="26187757#1"/>
 </person>
 <person depart="316.0" id="p26">
  <ride from="-79690674#0" lines="taxi" parkingArea="pa25980639" to="25980639"/>
 </person>
 <person depart="319.0" id="p27">
  <ride from="-211120148" lines="taxi" parkingArea="pa35062429#0" to="35062429#0"/>
 </person>
 <trip depart="320.27" departLane="best" departSpeed="max" from="257423660#1" id="rs_c001_i000_187" to="30471451"/>
 <trip depart="321.11" departLane="best" departSpeed="max" from="240100844#0" id="rs_c001_i000_49" to="530282943"/>
 <person depart="323.36" id="p28">
  <ride from="38674850" lines="taxi" parkingArea="pa38674844" to="38674844"/>
 </person>
 <trip depart="329.0" departLane="best" departSpeed="max" from="-20179292#0" id="rs_c000_i000_3634" to="530282943"/>
 <trip depart="338.0" departLane="best" departSpeed="max" from="56253839" id="rs_c001_i000_644" to="58425043"/>
 <person depart="338.0" id="p29">
  <ride from="-15242128#0" lines="taxi" parkingArea="pa38455846" to="38455846"/>
 </person>
 <trip depart="342.0" departLane="best" departSpeed="max" from="-38336405#0" id="rs_c000_i000_3759" to="104147692"/>
 <person depart="348.0" id="p30">
  <ride from="-122529101" lines="taxi" parkingArea="pa26187755#0" to="26187755#0"/>
 </person>
 <trip depart="353.0" departLane="best" departSpeed="max" from="-95937728#1" id="rs_c000_i000_2986" to="144246396#1"/>
 <trip depart="356.0" departLane="best" departSpeed="max" from="5091197#0" id="rs_c000_i000_3899" to="104147692"/>
 <trip depart="359.36" departLane="best" departSpeed="max" from="58097865" id="rs_c001_i000_363" to="104147692"/>
 <trip depart="360.0" departLane="best" departSpeed="max" from="32461045#0" id="rs_c001_i000_681" to="839402626#1"/>
 <trip depart="364.0" departLane="best" departSpeed="max" from="166533654#1" id="rs_c001_i000_690" to="35062429#0"/>
 <trip depart="368.0" departLane="best" departSpeed="max" from="4353778#1" id="rs_c000_i000_4037" to="58423646"/>
 <trip depart="368.0" departLane="best" departSpeed="max" from="132817973#0" id="rs_c000_i001_568" to="139124541#0"/>
 <person depart="370.0" id="p31">
  <ride from="-10426219" lines="taxi" parkingArea="pa35062429#0" to="35062429#0"/>
 </person>
 <trip depart="375.04" departLane="best" departSpeed="max" from="38674850" id="rs_c000_i000_1921" to="38674844"/>
 <trip depart="377.0" departLane="best" departSpeed="max" from="166533654#1" id="rs_c000_i000_4161" to="139124541#0"/>
 <person depart="384.0" id="p32">
  <ride from="-58603104" lines="taxi" parkingArea="pa117654824#0" to="117654824#0"/>
 </person>
 <person depart="384.96" id="p33">
  <ride from="30471452#0" lines="taxi" parkingArea="pa-61565232#0" to="-61565232#0"/>
 </person>
 <person depart="387.0" id="p34">
  <ride from="-4244655" lines="taxi" parkingArea="pa234899446" to="234899446"/>
 </person>
 <trip depart="388.0" departLane="best" departSpeed="max" from="-16345605#0" id="rs_c001_i000_736" to="35062429#0"/>
 <person depart="388.0" id="p35">
  <ride from="5091199" lines="taxi" parkingArea="pa34760663" to="34760663"/>
 </person>
 <person depart="391.0" id="p36">
  <ride from="-125351165#1" lines="taxi" parkingArea="pa26187755#0" to="26187755#0"/>
 </person>
 <person depart="392.0" id="p37">
  <ride from="-30471451" lines="taxi" parkingArea="pa362987791#0" to="362987791#0"/>
 </person>
 <trip depart="392.37" departLane="best" departSpeed="max" from="240100844#0" id="rs_c001_i000_233" to="530282943"/>
 <trip depart="394.0" departLane="best" departSpeed="max" from="83488871" id="rs_c001_i000_754" to="234899446"/>
 <trip depart="397.0" departLane="best" departSpeed="max" from="-79690674#0" id="rs_c000_i000_1214" to="34760663"/>
 <person depart="398.0" id="p38">
  <ride from="5095178#0" lines="taxi" parkingArea="pa34760663" to="34760663"/>
 </person>
 <trip depart="398.17" departLane="best" departSpeed="max" from="62059875#1" id="rs_c001_i001_22" to="34760663"/>
 <trip depart="400.0" departLane="best" departSpeed="max" from="30015228#0" id="rs_c001_i000_639" to="38674844"/>
 <trip depart="400.0" departLane="best" departSpeed="max" from="-121411748#1" id="rs_c000_i000_4388" to="117654824#0"/>
 <trip depart="400.0" departLane="best" departSpeed="max" from="-208585109#0" id="rs_c000_i000_4416" to="60727164#1"/>
 <trip depart="402.0" departLane="best" departSpeed="max" from="-22604699#0" id="rs_c000_i000_4461" to="104147692"/>
 <trip depart="402.0" departLane="best" departSpeed="max" from="-122529096#7" id="rs_c000_i000_4462" to="26187755#0"/>
 <trip depart="402.0" departLane="best" departSpeed="max" from="-24399329" id="rs_c000_i000_4464" to="58423646"/>
 <trip depart="402.94" departLane="best" departSpeed="max" from="-30471451" id="rs_c000_i000_2648" to="60727164#1"/>
 <trip depart="403.12" departLane="best" departSpeed="max" from="-30471451" id="rs_c001_i000_210" to="61367454#1"/>
 <trip depart="404.0" departLane="best" departSpeed="max" from="-83488850" id="rs_c001_i000_769" to="234899446"/>
 <trip depart="406.0" departLane="best" departSpeed="max" from="-26040294#1" id="rs_c000_i000_4507" to="58423646"/>
 <trip depart="408.0" departLane="best" departSpeed="max" from="-61367419#0" id="rs_c000_i000_4524" to="24429380-AddedOffRampEdge"/>
 <person depart="409.4" id="p39">
  <ride from="30471452#0" lines="taxi" parkingArea="pa5095206" to="5095206"/>
 </person>
 <person depart="414.0" id="p40">
  <ride from="95916459" lines="taxi" parkingArea="pa35062429#0" to="35062429#0"/>
 </person>
 <person depart="416.0" id="p41">
  <ride from="-95937728#1" lines="taxi" parkingArea="pa144246396#1" to="144246396#1"/>
 </person>
 <trip depart="416.0" departLane="best" departSpeed="max" from="-95212556" id="rs_c000_i000_4637" to="26187757#1"/>
 <person depart="416.44" id="p42">
  <ride from="240100844#0" lines="taxi" parkingArea="pa530282943" to="530282943"/>
 </person>
 <person depart="418.12" id="p43">
  <ride from="30471452#0" lines="taxi" parkingArea="pa234899446" to="234899446"/>
 </person>
 <trip depart="422.2" departLane="best" departSpeed="max" from="35062276" id="rs_c000_i000_3918" to="362987791#0"/>
 <person depart="423.0" id="p44">
  <ride from="631862806" lines="taxi" parkingArea="pa234899446" to="234899446"/>
 </person>
 <trip depart="428.85" departLane="best" departSpeed="max" from="30471452#0" id="rs_c000_i000_178" to="-5095213"/>
 <trip depart="429.0" departLane="best" departSpeed="max" from="-26040294#1" id="rs_c000_i001_665" to="24399330#1"/>
 <trip depart="430.0" departLane="best" departSpeed="max" from="-83510232#0" id="rs_c001_i001_103" to="234899446"/>
 <trip depart="432.0" departLane="best" departSpeed="max" from="-24399330#0" id="rs_c000_i000_4812" to="58423646"/>
 <trip depart="432.39" departLane="best" departSpeed="max" from="-30471451" id="rs_c000_i000_2587" to="362987791#0"/>
 <trip depart="432.81" departLane="best" departSpeed="max" from="38674850" id="rs_c000_i001_44" to="38674844"/>
 <trip depart="433.0" departLane="best" departSpeed="max" from="118155456#0" id="rs_c000_i000_4816" to="58423646"/>
 <trip depart="437.0" departLane="best" departSpeed="max" from="118869284#0" id="rs_c001_i000_848" to="26187755#0"/>
 <trip depart="440.0" departLane="best" departSpeed="max" from="-26378768" id="rs_c000_i000_4908" to="34776006"/>
 <trip depart="440.52" departLane="best" departSpeed="max" from="240100844#0" id="rs_c000_i000_1814" to="530282943"/>
 <person depart="442.0" id="p45">
  <ride from="-42792917#2" lines="taxi" parkingArea="pa25980639" to="25980639"/>
 </person>
 <trip depart="446.09" departLane="best" departSpeed="max" from="35703215" id="rs_c000_i002_26" to="25980639"/>
 <person depart="446.67" id="p46">
  <ride from="38674850" lines="taxi" parkingArea="pa38674844" to="38674844"/>
 </person>
 <trip depart="448.0" departLane="best" departSpeed="max" from="-57078728" id="rs_c000_i000_4997" to="24429380-AddedOffRampEdge"/>
 <trip depart="450.0" departLane="best" departSpeed="max" from="-10357406#1" id="rs_c000_i000_5015" to="38674844"/>
 <person depart="451.0" id="p47">
  <ride from="-10426171#0" lines="taxi" parkingArea="pa35062429#0" to="35062429#0"/>
 </person>
 <trip depart="454.0" departLane="best" departSpeed="max" from="-61367451" id="rs_c001_i000_884" to="24429380-AddedOffRampEdge"/>
 <person depart="455.0" id="p48">
  <ride from="24031456#6" lines="taxi" parkingArea="pa58423646" to="58423646"/>
 </person>
 <trip depart="456.49" departLane="best" departSpeed="max" from="62059875#1" id="rs_c000_i000_137" to="34760663"/>
 <person depart="457.0" id="p49">
  <ride from="-211208696#0" lines="taxi" parkingArea="pa102332984#0" to="102332984#0"/>
 </person>
 <trip depart="459.78" departLane="best" departSpeed="max" from="35703215" id="rs_c000_i000_1524" to="-1075684663#0"/>
 <person depart="461.0" id="p50">
  <ride from="117624637#0" lines="taxi" parkingArea="pa132793806" to="132793806"/>
 </person>
 <trip depart="463.0" departLane="best" departSpeed="max" from="125828734" id="rs_c000_i001_677" to="60727164#1"/>
 <person depart="464.0" id="p51">
  <ride from="-24399330#1" lines="taxi" parkingArea="pa58423646" to="58423646"/>
 </person>
 <trip depart="465.0" departLane="best" departSpeed="max" from="-4232328" id="rs_c000_i000_5217" to="530282943"/>
 <trip depart="468.0" departLane="best" departSpeed="max" from="-301127378" id="rs_c000_i001_719" to="35062429#0"/>
 <trip depart="469.0" departLane="best" departSpeed="max" from="-286243201" id="rs_c000_i000_5258" to="25980639"/>
 <person depart="471.6" id="p52">
  <ride from="30471452#0" lines="taxi" parkingArea="pa234899446" to="234899446"/>
 </person>
 <trip depart="477.0" departLane="best" departSpeed="max" from="126140573#0" id="rs_c000_i000_5336" to="234899446"/>
 <trip depart="479.0" departLane="best" departSpeed="max" from="301503168#1" id="rs_c000_i000_3495" to="35061798"/>
 <person depart="479.0" id="p53">
  <ride from="-26040356#1" lines="taxi" parkingArea="pa58423646" to="58423646"/>
 </person>
 <trip depart="480.97" departLane="best" departSpeed="max" from="35703215" id="rs_c000_i000_3275" to="25980639"/>
 <person depart="481.0" id="p54">
  <ride from="328253310#1" lines="taxi" parkingArea="pa102332984#0" to="102332984#0"/>
 </person>
 <trip depart="483.0" departLane="best" departSpeed="max" from="-122529094#9" id="rs_c000_i001_744" to="144246396#1"/>
 <person depart="485.0" id="p55">
  <ride from="-147136167" lines="taxi" parkingArea="pa35062429#0" to="35062429#0"/>
 </person>
 <person depart="485.0" id="p56">
  <ride from="-83488868" lines="taxi" parkingArea="pa234899446" to="234899446"/>
 </person>
 <trip depart="487.32" departLane="best" departSpeed="max" from="-30471451" id="rs_c000_i000_4219" to="1081179231"/>
 <trip depart="491.0" departLane="best" departSpeed="max" from="-10426021#1" id="rs_c000_i001_754" to="35062429#0"/>
 <trip depart="492.52" departLane="best" departSpeed="max" from="62059875#1" id="rs_c000_i000_1835" to="34760663"/>
 <trip depart="496.0" departLane="best" departSpeed="max" from="125351110" id="rs_c000_i000_5538" to="144246396#1"/>
 <person depart="497.14" id="p57">
  <ride from="38674850" lines="taxi" parkingArea="pa38674844" to="38674844"/>
 </person>
 <trip depart="502.0" departLane="best" departSpeed="max" from="4226192#2" id="rs_c001_i000_968" to="234899446"/>
 <person depart="506.0" id="p58">
  <ride from="-169313833#2" lines="taxi" parkingArea="pa144246396#1" to="144246396#1"/>
 </person>