<?xml version="1.0" encoding="utf-8"?>
<routes>
 <vType color="green" id="taxi" personCapacity="2" vClass="taxi">
  <param key="has.taxi.device" value="true"/>
  <param key="device.taxi.pickUpDuration" value="0"/>
  <param key="device.taxi.dropOffDuration" value="10"/>
  <param key="device.taxi.parking" value="true"/>
 </vType>
 <trip depart="0" from="-96050742" id="t0" to="-45180352" type="taxi"/>
 <trip depart="0" from="8102541" id="t1" to="25153046#0" type="taxi"/>
 <trip depart="0" from="-125351165#0" id="t2" to="79691034" type="taxi"/>
 <trip depart="0" from="286404309" id="t3" to="136864086" type="taxi"/>
 <trip depart="0" from="-42792917#0" id="t4" to="63108945" type="taxi"/>
 <trip depart="0" from="122529096#6" id="t5" to="-126709272#1" type="taxi"/>
 <trip depart="0" from="10363301" id="t6" to="-84018033" type="taxi"/>
 <trip depart="0" from="122529102#1" id="t7" to="-83163106" type="taxi"/>
 <trip depart="0" from="63112141" id="t8" to="301503168#1" type="taxi"/>
 <trip depart="0" from="5095190#1" id="t9" to="-14571550#0" type="taxi"/>
 <trip depart="0" from="-169313833#3" id="t10" to="84656707#1" type="taxi"/>
 <trip depart="0" from="117643608" id="t11" to="-126709272#1" type="taxi"/>
 <trip depart="0" from="30016016#0" id="t12" to="-61279840" type="taxi"/>
 <trip depart="0" from="8102366#0" id="t13" to="-4233644#0" type="taxi"/>
 <trip depart="0" from="26379010#0" id="t14" to="61280133#1" type="taxi"/>
 <trip depart="0" from="26348751#0" id="t15" to="-136721677#1" type="taxi"/>
 <trip depart="0" from="-117099159#0" id="t16" to="35061795" type="taxi"/>
 <trip depart="0" from="30016016#0" id="t17" to="-301145897" type="taxi"/>
 <trip depart="0" from="122529094#0" id="t18" to="-61367424" type="taxi"/>
 <trip depart="0" from="-38336405#3" id="t19" to="-136721675" type="taxi"/>
 <trip depart="0" from="-26367998#0" id="t20" to="61566224" type="taxi"/>
 <trip depart="0" from="126449241" id="t21" to="349902606#0" type="taxi"/>
 <trip depart="0" from="-84018033" id="t22" to="83163097#1" type="taxi"/>
 <trip depart="0" from="137996244#1" id="t23" to="169313833#1" type="taxi"/>
 <trip depart="0" from="-5058070" id="t24" to="-101486395" type="taxi"/>
 <trip depart="0" from="-5095178#1" id="t25" to="86527638#1" type="taxi"/>
 <trip depart="0" from="154150880#1" id="t26" to="-96596615#0" type="taxi"/>
 <trip depart="0" from="-61371685#0" id="t27" to="-10426171#1" type="taxi"/>
 <trip depart="0" from="122529096#5" id="t28" to="331442180" type="taxi"/>
 <trip depart="0" from="-62106371#0" id="t29" to="314250821" type="taxi"/>
 <trip depart="0" from="122529096#7" id="t30" to="-321098637" type="taxi"/>
 <trip depart="0" from="-286340281" id="t31" to="138350776" type="taxi"/>
 <trip depart="0" from="-122529096#3" id="t32" to="-117099133" type="taxi"/>
 <trip depart="0" from="136721677#1" id="t33" to="-136721664" type="taxi"/>
 <trip depart="0" from="63116648#2" id="t34" to="-78343358#0" type="taxi"/>
 <trip depart="0" from="-283762344" id="t35" to="-117649858" type="taxi"/>
 <trip depart="0" from="95937943#2" id="t36" to="4353778#1" type="taxi"/>
 <trip depart="0" from="25767797#0" id="t37" to="890973612" type="taxi"/>
 <trip depart="0" from="83506741" id="t38" to="-86527638#0" type="taxi"/>
 <trip depart="0" from="-42792917#0" id="t39" to="30605198" type="taxi"/>
 <trip depart="0" from="-83488867" id="t40" to="-4229440" type="taxi"/>
 <trip depart="0" from="117099159#0" id="t41" to="-234540368" type="taxi"/>
 <trip depart="0" from="-78535798#1" id="t42" to="-76346747" type="taxi"/>
 <trip depart="0" from="-314256365#0" id="t43" to="5091196#0" type="taxi"/>
 <trip depart="0" from="889565311#1" id="t44" to="34294088#0" type="taxi"/>
 <trip depart="0" from="118155452#1" id="t45" to="-39071853" type="taxi"/>
 <trip depart="0" from="-24031456#6" id="t46" to="-300060711" type="taxi"/>
 <trip depart="0" from="159761036#1" id="t47" to="-8102548" type="taxi"/>
 <trip depart="0" from="284410130" id="t48" to="-286340281" type="taxi"/>
 <trip depart="0" from="-314258297" id="t49" to="-117643622" type="taxi"/>
 <trip depart="0" from="132047190" id="t50" to="116049439#0" type="taxi"/>
 <trip depart="0" from="-1069054067" id="t51" to="-237837493#0" type="taxi"/>
 <trip depart="0" from="-30326685#1" id="t52" to="-87525116" type="taxi"/>
 <trip depart="0" from="4273625" id="t53" to="26085515#0" type="taxi"/>
 <trip depart="0" from="-14573382#1" id="t54" to="-4229440" type="taxi"/>
 <trip depart="0" from="-136721679#0" id="t55" to="58421454" type="taxi"/>
 <trip depart="0" from="-122529114#1" id="t56" to="-5096639" type="taxi"/>
 <trip depart="0" from="-312887967" id="t57" to="-84016143" type="taxi"/>
 <trip depart="0" from="26378883" id="t58" to="-38281640#0" type="taxi"/>
 <trip depart="0" from="117624637#0" id="t59" to="-206551701" type="taxi"/>
 <trip depart="0" from="126709272#2" id="t60" to="25153039#0" type="taxi"/>
 <trip depart="0" from="39077769" id="t61" to="61367419#2" type="taxi"/>
 <trip depart="0" from="-286243201" id="t62" to="10426021#1" type="taxi"/>
 <trip depart="0" from="84016143" id="t63" to="56253838" type="taxi"/>
 <trip depart="0" from="35772872" id="t64" to="301503168#1" type="taxi"/>
 <trip depart="0" from="81646465#1" id="t65" to="118155452#1" type="taxi"/>
 <trip depart="0" from="39139694" id="t66" to="5234761#1" type="taxi"/>
 <trip depart="0" from="234899446" id="t67" to="-61281860#0" type="taxi"/>
 <trip depart="0" from="-5234431#1" id="t68" to="24031456#0" type="taxi"/>
 <trip depart="0" from="24031456#5" id="t69" to="44680915" type="taxi"/>
 <trip depart="0" from="-906802009" id="t70" to="-34149612#0" type="taxi"/>
 <trip depart="0" from="57726373#1" id="t71" to="61281860#1" type="taxi"/>
 <trip depart="0" from="-125351165#1" id="t72" to="-366308474" type="taxi"/>
 <trip depart="0" from="237837493#0" id="t73" to="-4244653" type="taxi"/>
 <trip depart="0" from="286404309" id="t74" to="40347661#2" type="taxi"/>
 <trip depart="0" from="443551693" id="t75" to="75567703#1" type="taxi"/>
 <trip depart="0" from="162352616" id="t76" to="136721667" type="taxi"/>
 <trip depart="0" from="23960853#2" id="t77" to="-117649858" type="taxi"/>
 <trip depart="0" from="-24405231#0" id="t78" to="-95799435" type="taxi"/>
 <trip depart="0" from="-73225130#0" id="t79" to="4250371" type="taxi"/>
 <trip depart="0" from="23960853#0" id="t80" to="285621713" type="taxi"/>
 <trip depart="0" from="26349564#2" id="t81" to="117649887" type="taxi"/>
 <trip depart="0" from="-118864079#4" id="t82" to="-117656067#1" type="taxi"/>
 <trip depart="0" from="154150880#1" id="t83" to="-61281860#0" type="taxi"/>
 <trip depart="0" from="4242592" id="t84" to="78535798#0" type="taxi"/>
 <trip depart="0" from="122529114#0" id="t85" to="83163132" type="taxi"/>
 <trip depart="0" from="-331540404#0" id="t86" to="-96809695#2" type="taxi"/>
 <trip depart="0" from="-138037516" id="t87" to="61496433" type="taxi"/>
 <trip depart="0" from="237837493#0" id="t88" to="-331540389#0" type="taxi"/>
 <trip depart="0" from="37076917" id="t89" to="61281860#1" type="taxi"/>
 <trip depart="0" from="349902607#0" id="t90" to="83495764" type="taxi"/>
 <trip depart="0" from="122529099" id="t91" to="-122529094#7" type="taxi"/>
 <trip depart="0" from="25673108#0" id="t92" to="-61543316#1" type="taxi"/>
 <trip depart="0" from="28717885" id="t93" to="62115256" type="taxi"/>
 <trip depart="0" from="-59683580#1" id="t94" to="286243205" type="taxi"/>
 <trip depart="0" from="-61371680#0" id="t95" to="39139990#0" type="taxi"/>
 <trip depart="0" from="14573382#3" id="t96" to="39139679" type="taxi"/>
 <trip depart="0" from="-4244482#1" id="t97" to="-330415869" type="taxi"/>
 <trip depart="0" from="28231152" id="t98" to="81646465#1" type="taxi"/>
 <trip depart="0" from="-117649862#0" id="t99" to="26085515#5" type="taxi"/>
 <trip depart="0" from="14994762#1" id="t100" to="-84017451#1" type="taxi"/>
 <trip depart="0" from="-24398203#1" id="t101" to="51856551#0" type="taxi"/>
 <trip depart="0" from="35605878" id="t102" to="-116049439#0" type="taxi"/>
 <trip depart="0" from="15242128#1" id="t103" to="122529114#2" type="taxi"/>
 <trip depart="0" from="117624637#1" id="t104" to="-32461045#3" type="taxi"/>
 <trip depart="0" from="5234278#1" id="t105" to="30528972#0" type="taxi"/>
 <trip depart="0" from="-61367419#1" id="t106" to="899868125" type="taxi"/>
 <trip depart="0" from="-83488895#0" id="t107" to="138914231#0" type="taxi"/>
 <trip depart="0" from="78343351" id="t108" to="328253309#1" type="taxi"/>
 <trip depart="0" from="-61367425#0" id="t109" to="349902606#1" type="taxi"/>
 <trip depart="0" from="-314428600" id="t110" to="-84017451#1" type="taxi"/>
 <trip depart="0" from="-4361529#0" id="t111" to="8064520" type="taxi"/>
 <trip depart="0" from="10426204#1" id="t112" to="78343358#1" type="taxi"/>
 <trip depart="0" from="-78535771" id="t113" to="126131450#0" type="taxi"/>
 <trip depart="0" from="96809697" id="t114" to="78535771" type="taxi"/>
 <trip depart="0" from="26085515#4" id="t115" to="-25673108#2" type="taxi"/>
 <trip depart="0" from="5234274" id="t116" to="-1052613455" type="taxi"/>
 <trip depart="0" from="84639229#1" id="t117" to="-61367436#1" type="taxi"/>
 <trip depart="0" from="-26085515#0" id="t118" to="159761036#1" type="taxi"/>
 <trip depart="0" from="-4353778#2" id="t119" to="26368656#0" type="taxi"/>
 <trip depart="0" from="98158886#0" id="t120" to="314426030#1" type="taxi"/>
 <trip depart="0" from="210457775#0" id="t121" to="217763498#2" type="taxi"/>
 <trip depart="0" from="117649858" id="t122" to="117643608" type="taxi"/>
 <trip depart="0" from="138350780#2" id="t123" to="-138350778#0" type="taxi"/>
 <trip depart="0" from="26367998#1" id="t124" to="35605874#3" type="taxi"/>
 <trip depart="0" from="4353778#2" id="t125" to="38336405#1" type="taxi"/>
 <trip depart="0" from="-321098637" id="t126" to="118864085" type="taxi"/>
 <trip depart="0" from="25767798#1" id="t127" to="137996247" type="taxi"/>
 <trip depart="0" from="-61279843" id="t128" to="83488859" type="taxi"/>
 <trip depart="0" from="44503434#1" id="t129" to="1006265805#0" type="taxi"/>
 <trip depart="0" from="30471451" id="t130" to="10357494" type="taxi"/>
 <trip depart="0" from="10372461" id="t131" to="345608032#1" type="taxi"/>
 <trip depart="0" from="-14434303" id="t132" to="-233171092" type="taxi"/>
 <trip depart="0" from="-101520672" id="t133" to="30528971" type="taxi"/>
 <trip depart="0" from="-5234573#0" id="t134" to="97836595" type="taxi"/>
 <trip depart="0" from="83163114#1" id="t135" to="35703215" type="taxi"/>
 <trip depart="0" from="26187879" id="t136" to="25361758" type="taxi"/>
 <trip depart="0" from="-61984348" id="t137" to="136721670#1" type="taxi"/>
 <trip depart="0" from="-10426171#0" id="t138" to="-287449681" type="taxi"/>
 <trip depart="0" from="707213207#0" id="t139" to="34776014" type="taxi"/>
 <trip depart="0" from="5234741" id="t140" to="-76346745" type="taxi"/>
 <trip depart="0" from="87397777" id="t141" to="-52673136" type="taxi"/>
 <trip depart="0" from="30956035#0" id="t142" to="-55636272#1" type="taxi"/>
 <trip depart="0" from="126449315#0" id="t143" to="-50044720#1" type="taxi"/>
 <trip depart="0" from="26037066" id="t144" to="-96596623#0" type="taxi"/>
 <trip depart="0" from="117624635" id="t145" to="103302381" type="taxi"/>
 <trip depart="0" from="300981184#1" id="t146" to="217763498#2" type="taxi"/>
 <trip depart="0" from="61367449#1" id="t147" to="210457775#0" type="taxi"/>
 <trip depart="0" from="22982190" id="t148" to="-76987970" type="taxi"/>
 <trip depart="0" from="314252679" id="t149" to="84639229#1" type="taxi"/>
 <trip depart="0" from="-765843955" id="t150" to="-286243201" type="taxi"/>
 <trip depart="0" from="-290255303#1" id="t151" to="-369180511#0" type="taxi"/>
 <trip depart="0" from="4680624#1" id="t152" to="-63116620#0" type="taxi"/>
 <trip depart="0" from="127207622" id="t153" to="136721677#1" type="taxi"/>
 <trip depart="0" from="132793806" id="t154" to="-61565968" type="taxi"/>
 <trip depart="0" from="117631291#0" id="t155" to="122529096#7" type="taxi"/>
 <trip depart="0" from="-117649862#0" id="t156" to="38674844" type="taxi"/>
 <trip depart="0" from="-61367454#0" id="t157" to="-42793238#1" type="taxi"/>
 <trip depart="0" from="4233644#0" id="t158" to="-4353778#1" type="taxi"/>
 <trip depart="0" from="-16626712" id="t159" to="890973612" type="taxi"/>
 <trip depart="0" from="5234757#1" id="t160" to="26367999" type="taxi"/>
 <trip depart="0" from="136721679#0" id="t161" to="117643608" type="taxi"/>
 <trip depart="0" from="122529096#4" id="t162" to="-81646465#0" type="taxi"/>
 <trip depart="0" from="122529114#1" id="t163" to="25673108#0" type="taxi"/>
 <trip depart="0" from="-26127182#1" id="t164" to="285621686" type="taxi"/>
 <trip depart="0" from="-8058345" id="t165" to="137996247" type="taxi"/>
 <trip depart="0" from="-26165754#2" id="t166" to="35062276" type="taxi"/>
 <trip depart="0" from="28912203" id="t167" to="285621704" type="taxi"/>
 <trip depart="0" from="61367440" id="t168" to="-14571550#0" type="taxi"/>
 <trip depart="0" from="136721667" id="t169" to="-324741543" type="taxi"/>
 <trip depart="0" from="126449221#0" id="t170" to="-63116620#0" type="taxi"/>
 <trip depart="0" from="183247519#0" id="t171" to="-24405231#0" type="taxi"/>
 <trip depart="0" from="-79690674#0" id="t172" to="24398203#1" type="taxi"/>
 <trip depart="0" from="60727163" id="t173" to="-62070348" type="taxi"/>
 <trip depart="0" from="-59683236#1" id="t174" to="24977184" type="taxi"/>
 <trip depart="0" from="93670633#1" id="t175" to="61367408#1" type="taxi"/>
 <trip depart="0" from="63322106#1" id="t176" to="-349896686" type="taxi"/>
 <trip depart="0" from="1081179231" id="t177" to="-61367434" type="taxi"/>
 <trip depart="0" from="-96596621" id="t178" to="25767798#1" type="taxi"/>
 <trip depart="0" from="-611245993" id="t179" to="10425893#2" type="taxi"/>
 <trip depart="0" from="-32016573" id="t180" to="28717883#0" type="taxi"/>
 <trip depart="0" from="314422898#1" id="t181" to="-321098627" type="taxi"/>
 <trip depart="0" from="61982178#0" id="t182" to="-286243200" type="taxi"/>
 <trip depart="0" from="34178669" id="t183" to="-10559035" type="taxi"/>
 <trip depart="0" from="39297416" id="t184" to="-86527681#0" type="taxi"/>
 <trip depart="0" from="-61565232#0" id="t185" to="-61281861" type="taxi"/>
 <trip depart="0" from="25767798#1" id="t186" to="-8394862" type="taxi"/>
 <trip depart="0" from="29509214" id="t187" to="183247519#0" type="taxi"/>
 <trip depart="0" from="117649862#0" id="t188" to="35061798" type="taxi"/>
 <trip depart="0" from="-30140142" id="t189" to="314426030#1" type="taxi"/>
 <trip depart="0" from="40347661#2" id="t190" to="61566223" type="taxi"/>
 <trip depart="0" from="-73222634" id="t191" to="28918381#1" type="taxi"/>
 <trip depart="0" from="-15242128#0" id="t192" to="5234741" type="taxi"/>
 <trip depart="0" from="8102548" id="t193" to="126449231#0" type="taxi"/>
 <trip depart="0" from="5095173" id="t194" to="-96596623#0" type="taxi"/>
 <trip depart="0" from="116049439#0" id="t195" to="-14573382#1" type="taxi"/>
 <trip depart="0" from="127207622" id="t196" to="61367425#1" type="taxi"/>
 <trip depart="0" from="28912317#3" id="t197" to="-5067354#0" type="taxi"/>
 <trip depart="0" from="34733054#3" id="t198" to="53682411#0" type="taxi"/>
 <trip depart="0" from="26349564#2" id="t199" to="-121411748#1" type="taxi"/>
 <trip depart="0" from="-9604697" id="t200" to="78343358#1" type="taxi"/>
 <trip depart="0" from="-25673108#2" id="t201" to="117656063#0" type="taxi"/>
 <trip depart="0" from="51340803#1" id="t202" to="-57726375#2" type="taxi"/>
 <trip depart="0" from="59603305#1" id="t203" to="-205468106" type="taxi"/>
 <trip depart="0" from="138350778#1" id="t204" to="30955886#0" type="taxi"/>
 <trip depart="0" from="43263108" id="t205" to="97694266" type="taxi"/>
 <trip depart="0" from="-26378769" id="t206" to="-153716505#1" type="taxi"/>
 <trip depart="0" from="25767797#0" id="t207" to="-61566225#0" type="taxi"/>
 <trip depart="0" from="86527681#1" id="t208" to="42902344" type="taxi"/>
 <trip depart="0" from="-153716505#0" id="t209" to="-122529094#3" type="taxi"/>
 <trip depart="0" from="-136721677#1" id="t210" to="284410129" type="taxi"/>
 <trip depart="0" from="132852432" id="t211" to="125828734" type="taxi"/>
 <trip depart="0" from="126449297#0" id="t212" to="1081179231" type="taxi"/>
 <trip depart="0" from="211129670#1" id="t213" to="-74694793" type="taxi"/>
 <trip depart="0" from="30263381" id="t214" to="285621708" type="taxi"/>
 <trip depart="0" from="39125215#1" id="t215" to="-1052613455" type="taxi"/>
 <trip depart="0" from="-362993458" id="t216" to="-10372364#0" type="taxi"/>
 <trip depart="0" from="-233171093" id="t217" to="136721679#2" type="taxi"/>
 <trip depart="0" from="30261166#0" id="t218" to="-94107509" type="taxi"/>
 <trip depart="0" from="-136864084#2" id="t219" to="162352616" type="taxi"/>
 <trip depart="0" from="-34149613" id="t220" to="83496334" type="taxi"/>
 <trip depart="0" from="463124698" id="t221" to="28377479#0" type="taxi"/>
 <trip depart="0" from="84639212" id="t222" to="1010508082" type="taxi"/>
 <trip depart="0" from="-314426030#0" id="t223" to="35772872" type="taxi"/>
 <trip depart="0" from="-61367409" id="t224" to="-137996244#0" type="taxi"/>
 <trip depart="0" from="93670626" id="t225" to="-301145897" type="taxi"/>
 <trip depart="0" from="-38325502#0" id="t226" to="30257059#1" type="taxi"/>
 <trip depart="0" from="-97694266" id="t227" to="-38281640#0" type="taxi"/>
 <trip depart="0" from="-42793238#0" id="t228" to="24399330#0" type="taxi"/>
 <trip depart="0" from="-39071853" id="t229" to="-126140573#3" type="taxi"/>
 <trip depart="0" from="63116494#1" id="t230" to="-52291443" type="taxi"/>
 <trip depart="0" from="243759680" id="t231" to="290255303#2" type="taxi"/>
 <trip depart="0" from="210457775#1" id="t232" to="-24399330#1" type="taxi"/>
 <trip depart="0" from="132817973#0" id="t233" to="78535798#2" type="taxi"/>
 <trip depart="0" from="-30326685#1" id="t234" to="132817972" type="taxi"/>
 <trip depart="0" from="44503435" id="t235" to="24428915" type="taxi"/>
 <trip depart="0" from="34760663" id="t236" to="540032980" type="taxi"/>
 <trip depart="0" from="314422898#1" id="t237" to="-369150317#0" type="taxi"/>
 <trip depart="0" from="126499972#2" id="t238" to="314422898#1" type="taxi"/>
 <trip depart="0" from="-29712022" id="t239" to="117623505" type="taxi"/>
 <trip depart="0" from="310738357" id="t240" to="14571552" type="taxi"/>
 <trip depart="0" from="-237367748#2" id="t241" to="30140135" type="taxi"/>
 <trip depart="0" from="-4227191" id="t242" to="301127377" type="taxi"/>
 <trip depart="0" from="285621708" id="t243" to="-30786474" type="taxi"/>
 <trip depart="0" from="-125589533" id="t244" to="-310738357" type="taxi"/>
 <trip depart="0" from="25767797#0" id="t245" to="-61491725" type="taxi"/>
 <trip depart="0" from="-122529096#7" id="t246" to="-98158886#0" type="taxi"/>
 <trip depart="0" from="-96809693#0" id="t247" to="117656067#0" type="taxi"/>
 <trip depart="0" from="26040355#1" id="t248" to="-5095178#1" type="taxi"/>
 <trip depart="0" from="136721678" id="t249" to="62106371#1" type="taxi"/>
 <trip depart="0" from="-57726373#0" id="t250" to="-217696288#1" type="taxi"/>
 <trip depart="0" from="136721679#0" id="t251" to="220802775" type="taxi"/>
 <trip depart="0" from="32016029#0" id="t252" to="78535798#2" type="taxi"/>
 <trip depart="0" from="138669848" id="t253" to="136721675" type="taxi"/>
 <trip depart="0" from="-126449297#1" id="t254" to="-286243203#1" type="taxi"/>
 <trip depart="0" from="-132047180" id="t255" to="-4244482#1" type="taxi"/>
 <trip depart="0" from="-217695970#0" id="t256" to="-25673108#0" type="taxi"/>
 <trip depart="0" from="-290255303#0" id="t257" to="-63134322#0" type="taxi"/>
 <trip depart="0" from="17006445" id="t258" to="30016025" type="taxi"/>
 <trip depart="0" from="-5058062" id="t259" to="4353778#1" type="taxi"/>
 <trip depart="0" from="5234278#2" id="t260" to="-331540404#0" type="taxi"/>
 <trip depart="0" from="-10426171#0" id="t261" to="-765843955" type="taxi"/>
 <trip depart="0" from="-331442180" id="t262" to="-369150317#0" type="taxi"/>
 <trip depart="0" from="-61566225#0" id="t263" to="-217696289" type="taxi"/>
 <trip depart="0" from="21052315#1" id="t264" to="-136721664" type="taxi"/>
 <trip depart="0" from="233171092" id="t265" to="-208548183" type="taxi"/>
 <trip depart="0" from="-122529094#8" id="t266" to="-59603306" type="taxi"/>
 <trip depart="0" from="707213265" id="t267" to="-234902999" type="taxi"/>
 <trip depart="0" from="-365580162" id="t268" to="30016021" type="taxi"/>
 <trip depart="0" from="-722724103" id="t269" to="25153046#0" type="taxi"/>
 <trip depart="0" from="117623507" id="t270" to="138350776" type="taxi"/>
 <trip depart="0" from="5230785" id="t271" to="61371685#1" type="taxi"/>
 <trip depart="0" from="-51306014" id="t272" to="166533654#1" type="taxi"/>
 <trip depart="0" from="10425893#1" id="t273" to="-97694266" type="taxi"/>
 <trip depart="0" from="118155456#0" id="t274" to="362993459" type="taxi"/>
 <trip depart="0" from="-95799435" id="t275" to="-211129670#0" type="taxi"/>
 <trip depart="0" from="32016573" id="t276" to="290255303#2" type="taxi"/>
 <trip depart="0" from="-26165752#0" id="t277" to="-53682403#1" type="taxi"/>
 <trip depart="0" from="-34776023#0" id="t278" to="-118155456#2" type="taxi"/>
 <trip depart="0" from="122529094#7" id="t279" to="-290255300" type="taxi"/>
 <trip depart="0" from="-62789947#1" id="t280" to="30326720#0" type="taxi"/>
 <trip depart="0" from="126709272#1" id="t281" to="38674850" type="taxi"/>
 <trip depart="0" from="-117623507" id="t282" to="222307221#0" type="taxi"/>
 <trip depart="0" from="83163119" id="t283" to="-61367436#1" type="taxi"/>
 <trip depart="0" from="125858555#0" id="t284" to="-96809693#1" type="taxi"/>
 <trip depart="0" from="-26040355#4" id="t285" to="51856551#0" type="taxi"/>
 <trip depart="0" from="122529094#4" id="t286" to="34733206" type="taxi"/>
 <trip depart="0" from="-42725687" id="t287" to="126449314" type="taxi"/>
 <trip depart="0" from="-117099133" id="t288" to="-71360393" type="taxi"/>
 <trip depart="0" from="132852431" id="t289" to="95937943#1" type="taxi"/>
 <trip depart="0" from="83163132" id="t290" to="116049443#2" type="taxi"/>
 <trip depart="0" from="5234573#1" id="t291" to="30257059#0" type="taxi"/>
 <trip depart="0" from="-312887967" id="t292" to="-84639239" type="taxi"/>
 <trip depart="0" from="-61982178#0" id="t293" to="-95100609" type="taxi"/>
 <trip depart="0" from="331444958" id="t294" to="117643608" type="taxi"/>
 <trip depart="0" from="30605198" id="t295" to="-136721664" type="taxi"/>
 <trip depart="0" from="-62057644" id="t296" to="38325505" type="taxi"/>
 <trip depart="0" from="23960853#2" id="t297" to="557399294" type="taxi"/>
 <trip depart="0" from="130882097#0" id="t298" to="137388192#1" type="taxi"/>
 <trip depart="0" from="-317560495" id="t299" to="-301127378" type="taxi"/>
 <trip depart="0" from="125683988" id="t300" to="-62057884#1" type="taxi"/>
 <trip depart="0" from="30141086#0" id="t301" to="-122529114#2" type="taxi"/>
 <trip depart="0" from="285621702#1" id="t302" to="-26037066" type="taxi"/>
 <trip depart="0" from="81646465#1" id="t303" to="24977246" type="taxi"/>
 <trip depart="0" from="83506741" id="t304" to="10372364#1" type="taxi"/>
 <trip depart="0" from="117099159#2" id="t305" to="-4341507#0" type="taxi"/>
 <trip depart="0" from="183247520" id="t306" to="-245623696#2" type="taxi"/>
 <trip depart="0" from="-34777320" id="t307" to="-4237991" type="taxi"/>
 <trip depart="0" from="38336405#1" id="t308" to="5234741" type="taxi"/>
 <trip depart="0" from="84656435#1" id="t309" to="30605198" type="taxi"/>
 <trip depart="0" from="188891687" id="t310" to="-26349563#1" type="taxi"/>
 <trip depart="0" from="25600863" id="t311" to="122529098#0" type="taxi"/>
 <trip depart="0" from="118155456#1" id="t312" to="-96945485" type="taxi"/>
 <trip depart="0" from="-24399325#0" id="t313" to="-57726375#3" type="taxi"/>
 <trip depart="0" from="290500795" id="t314" to="-8064520" type="taxi"/>
 <trip depart="0" from="-314258297" id="t315" to="117631291#0" type="taxi"/>
 <trip depart="0" from="78343351" id="t316" to="24399325#1" type="taxi"/>
 <trip depart="0" from="35067050" id="t317" to="30326720#0" type="taxi"/>
 <trip depart="0" from="-369180511#0" id="t318" to="84639212" type="taxi"/>
 <trip depart="0" from="122529094#9" id="t319" to="-101521565" type="taxi"/>
 <trip depart="0" from="138350780#0" id="t320" to="5095171" type="taxi"/>
 <trip depart="0" from="138350778#1" id="t321" to="4680630" type="taxi"/>
 <trip depart="0" from="-217695970#0" id="t322" to="349896688" type="taxi"/>
 <trip depart="0" from="-26367881" id="t323" to="-5234278#1" type="taxi"/>
 <trip depart="0" from="53682411#1" id="t324" to="-35606385#0" type="taxi"/>
 <trip depart="0" from="38807023" id="t325" to="-117643624" type="taxi"/>
 <trip depart="0" from="10373960" id="t326" to="-96556756" type="taxi"/>
 <trip depart="0" from="166533651" id="t327" to="331292452" type="taxi"/>
 <person depart="1.0" id="p0">
  <ride from="321098632#1" lines="taxi" parkingArea="pa234899446" to="234899446"/>
 </person>
 <trip depart="4.0" departLane="best" departSpeed="max" from="-38807023" id="rs_c000_i000_48" to="104147692"/>
 <person depart="4.0" id="p1">
  <ride from="-26037066" lines="taxi" parkingArea="pa58423646" to="58423646"/>
 </person>
 <person depart="5.0" id="p2">
  <ride from="-126709272#1" lines="taxi" parkingArea="pa102332984#0" to="102332984#0"/>
 </person>
 <trip depart="7.0" departLane="best" departSpeed="max" from="5231759" id="rs_c000_i000_81" to="29970080#0"/>
 <person depart="8.0" id="p3">
  <ride from="-52673136" lines="taxi" parkingArea="pa24429380-AddedOffRampEdge" to="24429380-AddedOffRampEdge"/>
 </person>
 <trip depart="13.0" departLane="best" departSpeed="max" from="-117654815#1" id="rs_c000_i000_148" to="25980639"/>
 <trip depart="14.0" departLane="best" departSpeed="max" from="222307221#0" id="rs_c000_i000_151" to="58423646"/>
 <trip depart="17.0" departLane="best" departSpeed="max" from="-137996247" id="rs_c000_i000_194" to="58423646"/>
 <person depart="18.0" id="p4">
  <ride from="-63134322#1" lines="taxi" parkingArea="pa117654824#0" to="117654824#0"/>
 </person>
 <person depart="18.0" id="p5">
  <ride from="26959985" lines="taxi" parkingArea="pa362987791#0" to="362987791#0"/>
 </person>
 <person depart="20.0" id="p6">
  <ride from="-61367432" lines="taxi" parkingArea="pa104147692" to="104147692"/>
 </person>
 <trip depart="22.0" departLane="best" departSpeed="max" from="-45578880" id="rs_c000_i000_260" to="39139679"/>
 <trip depart="23.0" departLane="best" departSpeed="max" from="-122529098#1" id="rs_c000_i000_277" to="26187757#1"/>
 <trip depart="24.0" departLane="best" departSpeed="max" from="219528064" id="rs_c001_i001_7" to="234899446"/>
 <trip depart="24.0" departLane="best" departSpeed="max" from="-117643614#1" id="rs_c000_i001_32" to="117654824#0"/>
 <person depart="25.0" id="p7">
  <ride from="-122529110" lines="taxi" parkingArea="pa26187755#0" to="26187755#0"/>
 </person>
 <person depart="25.0" id="p8">
  <ride from="56253839" lines="taxi" parkingArea="pa25980639" to="25980639"/>
 </person>
 <trip depart="26.0" departLane="best" departSpeed="max" from="43263108" id="rs_c001_i000_42" to="30471451"/>
 <person depart="27.0" id="p9">
  <ride from="-74011129#0" lines="taxi" parkingArea="pa25980639" to="25980639"/>
 </person>
 <trip depart="33.0" departLane="best" departSpeed="max" from="-369150317#0" id="rs_c000_i000_381" to="26187757#1"/>
 <trip depart="33.0" departLane="best" departSpeed="max" from="290255300" id="rs_c000_i000_384" to="58423646"/>
 <trip depart="34.0" departLane="best" departSpeed="max" from="1080298604" id="rs_c001_i000_68" to="234899446"/>
 <trip depart="35.0" departLane="best" departSpeed="max" from="35605874#2" id="rs_c000_i000_411" to="-61984348"/>
 <person depart="38.0" id="p10">
  <ride from="-62106322#0" lines="taxi" parkingArea="pa25980639" to="25980639"/>
 </person>
 <person depart="38.0" id="p11">
  <ride from="-5067354#1" lines="taxi" parkingArea="pa34760663" to="34760663"/>
 </person>
 <trip depart="40.0" departLane="best" departSpeed="max" from="-84639229#0" id="rs_c000_i000_455" to="39139679"/>
 <trip depart="41.0" departLane="best" departSpeed="max" from="4229427#1" id="rs_c001_i000_84" to="60727164#1"/>
 <trip depart="41.0" departLane="best" departSpeed="max" from="10557712" id="rs_c000_i000_475" to="1081179231"/>
 <trip depart="43.0" departLane="best" departSpeed="max" from="-122529102#1" id="rs_c001_i002_1" to="26187755#0"/>
 <trip depart="43.0" departLane="best" departSpeed="max" from="-10426204#1" id="rs_c001_i000_90" to="35062429#0"/>
 <trip depart="43.0" departLane="best" departSpeed="max" from="-95212556" id="rs_c000_i000_487" to="24428921"/>
 <person depart="47.0" id="p12">
  <ride from="-122529096#6" lines="taxi" parkingArea="pa26187755#0" to="26187755#0"/>
 </person>
 <person depart="47.0" id="p13">
  <ride from="-136721671" lines="taxi" parkingArea="pa58423646" to="58423646"/>
 </person>
 <person depart="48.0" id="p14">
  <ride from="-116049439#1" lines="taxi" parkingArea="pa26187757#1" to="26187757#1"/>
 </person>
 <person depart="49.0" id="p15">
  <ride from="-286243203#1" lines="taxi" parkingArea="pa24405134" to="24405134"/>
 </person>
 <trip depart="51.0" departLane="best" departSpeed="max" from="51340803#1" id="rs_c001_i000_35" to="35062429#0"/>
 <person depart="51.0" id="p16">
  <ride from="-61997814#0" lines="taxi" parkingArea="pa379527001" to="379527001"/>
 </person>
 <trip depart="52.0" departLane="best" departSpeed="max" from="-118869284#1" id="rs_c000_i000_598" to="144246396#1"/>
 <trip depart="53.0" departLane="best" departSpeed="max" from="-188890214" id="rs_c000_i000_610" to="28377479#0"/>
 <trip depart="53.0" departLane="best" departSpeed="max" from="30326559" id="rs_c000_i000_612" to="34760663"/>
 <person depart="55.0" id="p17">