<?xml version="1.0" encoding="utf-8"?>
<routes>
 <vType color="green" id="taxi" personCapacity="2" vClass="taxi">
  <param key="has.taxi.device" value="true"/>
  <param key="device.taxi.pickUpDuration" value="0"/>
  <param key="device.taxi.dropOffDuration" value="10"/>
  <param key="device.taxi.parking" value="true"/>
 </vType>
 <trip depart="0" from="-335084841#0" id="t0" to="84023980" type="taxi"/>
 <trip depart="0" from="-122529114#2" id="t1" to="-61281861" type="taxi"/>
 <trip depart="0" from="62057782" id="t2" to="61281939#1" type="taxi"/>
 <trip depart="0" from="-122529094#4" id="t3" to="83163106" type="taxi"/>
 <trip depart="0" from="-77608974#0" id="t4" to="122529094#4" type="taxi"/>
 <trip depart="0" from="103302383#0" id="t5" to="-183247519#0" type="taxi"/>
 <trip depart="0" from="24398203#2" id="t6" to="-117643608" type="taxi"/>
 <trip depart="0" from="5234573#1" id="t7" to="190981790#0" type="taxi"/>
 <trip depart="0" from="53682403#2" id="t8" to="-287449681" type="taxi"/>
 <trip depart="0" from="890973612" id="t9" to="10425858" type="taxi"/>
 <trip depart="0" from="-208548183" id="t10" to="83633201" type="taxi"/>
 <trip depart="0" from="-25673108#0" id="t11" to="61984349#1" type="taxi"/>
 <trip depart="0" from="121411749#0" id="t12" to="540032980" type="taxi"/>
 <trip depart="0" from="-26127182#0" id="t13" to="-428094273" type="taxi"/>
 <trip depart="0" from="-5067354#1" id="t14" to="-283762344" type="taxi"/>
 <trip depart="0" from="-84018298" id="t15" to="-314422898#0" type="taxi"/>
 <trip depart="0" from="159761033" id="t16" to="136721679#0" type="taxi"/>
 <trip depart="0" from="-5234464" id="t17" to="-61367408#0" type="taxi"/>
 <trip depart="0" from="-159761036#1" id="t18" to="191374714#1" type="taxi"/>
 <trip depart="0" from="-83633201" id="t19" to="-15242125" type="taxi"/>
 <trip depart="0" from="4244482#1" id="t20" to="117099170" type="taxi"/>
 <trip depart="0" from="-96556756" id="t21" to="-118155452#1" type="taxi"/>
 <trip depart="0" from="4244482#1" id="t22" to="4353778#1" type="taxi"/>
 <trip depart="0" from="56253837" id="t23" to="95799445" type="taxi"/>
 <trip depart="0" from="-15242129#1" id="t24" to="-75565714" type="taxi"/>
 <trip depart="0" from="26240196" id="t25" to="85123364" type="taxi"/>
 <trip depart="0" from="-30529008" id="t26" to="-76346745" type="taxi"/>
 <trip depart="0" from="-26369585" id="t27" to="-86527638#0" type="taxi"/>
 <trip depart="0" from="-369150317#0" id="t28" to="286243203#0" type="taxi"/>
 <trip depart="0" from="126449231#0" id="t29" to="126449197" type="taxi"/>
 <trip depart="0" from="-62106322#0" id="t30" to="331540389#1" type="taxi"/>
 <trip depart="0" from="286175725#3" id="t31" to="25976329#1" type="taxi"/>
 <trip depart="0" from="5086880" id="t32" to="-122529094#7" type="taxi"/>
 <trip depart="0" from="47089825" id="t33" to="61982178#1" type="taxi"/>
 <trip depart="0" from="-126449297#0" id="t34" to="848433709" type="taxi"/>
 <trip depart="0" from="-1075684663#0" id="t35" to="345608032#1" type="taxi"/>
 <trip depart="0" from="136721679#0" id="t36" to="349909772#1" type="taxi"/>
 <trip depart="0" from="138037519" id="t37" to="328253309#1" type="taxi"/>
 <trip depart="0" from="-14994763" id="t38" to="26349565#0" type="taxi"/>
 <trip depart="0" from="162352616" id="t39" to="118864079#1" type="taxi"/>
 <trip depart="0" from="35067049" id="t40" to="76346323" type="taxi"/>
 <trip depart="0" from="-10559035" id="t41" to="345608032#1" type="taxi"/>
 <trip depart="0" from="428092910#0" id="t42" to="85044863#0" type="taxi"/>
 <trip depart="0" from="-75567703#1" id="t43" to="-339760503" type="taxi"/>
 <trip depart="0" from="-4244653" id="t44" to="118155456#2" type="taxi"/>
 <trip depart="0" from="-26165752#1" id="t45" to="84656435#1" type="taxi"/>
 <trip depart="0" from="-62789947#1" id="t46" to="328253310#0" type="taxi"/>
 <trip depart="0" from="62057889" id="t47" to="-25498192" type="taxi"/>
 <trip depart="0" from="30140135" id="t48" to="117624637#0" type="taxi"/>
 <trip depart="0" from="-83187094" id="t49" to="-35605874#0" type="taxi"/>
 <trip depart="0" from="-324738924" id="t50" to="138350779" type="taxi"/>
 <trip depart="0" from="79057000" id="t51" to="233171094#1" type="taxi"/>
 <trip depart="0" from="117624637#0" id="t52" to="35061798" type="taxi"/>
 <trip depart="0" from="-349896687#1" id="t53" to="26368316" type="taxi"/>
 <trip depart="0" from="117654819#0" id="t54" to="117654819#0" type="taxi"/>
 <trip depart="0" from="10557712" id="t55" to="136721683" type="taxi"/>
 <trip depart="0" from="-61280135" id="t56" to="-212694590" type="taxi"/>
 <trip depart="0" from="4244655" id="t57" to="-10425852" type="taxi"/>
 <trip depart="0" from="23960853#2" id="t58" to="136721670#1" type="taxi"/>
 <trip depart="0" from="30605198" id="t59" to="-75567703#1" type="taxi"/>
 <trip depart="0" from="314256365#1" id="t60" to="83163132" type="taxi"/>
 <trip depart="0" from="95937943#2" id="t61" to="-153716505#0" type="taxi"/>
 <trip depart="0" from="-58097866" id="t62" to="118155456#1" type="taxi"/>
 <trip depart="0" from="136721670#1" id="t63" to="1006265805#3" type="taxi"/>
 <trip depart="0" from="530282943" id="t64" to="286175725#3" type="taxi"/>
 <trip depart="0" from="349902608#1" id="t65" to="-138350778#0" type="taxi"/>
 <trip depart="0" from="30326722" id="t66" to="26187879" type="taxi"/>
 <trip depart="0" from="191374715#1" id="t67" to="63116494#1" type="taxi"/>
 <trip depart="0" from="-1069054067" id="t68" to="-84639212" type="taxi"/>
 <trip depart="0" from="-28918381#1" id="t69" to="14571572" type="taxi"/>
 <trip depart="0" from="30326685#1" id="t70" to="-61523337" type="taxi"/>
 <trip depart="0" from="-61367443" id="t71" to="26127182#2" type="taxi"/>
 <trip depart="0" from="540032980" id="t72" to="-5095173" type="taxi"/>
 <trip depart="0" from="-313693701" id="t73" to="-331540406" type="taxi"/>
 <trip depart="0" from="-26037066" id="t74" to="83163117" type="taxi"/>
 <trip depart="0" from="125858555#0" id="t75" to="707213265" type="taxi"/>
 <trip depart="0" from="-95212556" id="t76" to="117099153" type="taxi"/>
 <trip depart="0" from="-117654815#3" id="t77" to="126449315#0" type="taxi"/>
 <trip depart="0" from="63108945" id="t78" to="118864079#4" type="taxi"/>
 <trip depart="0" from="81646465#1" id="t79" to="-4361529#0" type="taxi"/>
 <trip depart="0" from="-83163101" id="t80" to="462046218" type="taxi"/>
 <trip depart="0" from="-188890214" id="t81" to="34776014" type="taxi"/>
 <trip depart="0" from="62057782" id="t82" to="62106371#1" type="taxi"/>
 <trip depart="0" from="-22604699#1" id="t83" to="-61279845" type="taxi"/>
 <trip depart="0" from="94107470" id="t84" to="-23739394" type="taxi"/>
 <trip depart="0" from="117624637#1" id="t85" to="117639101#0" type="taxi"/>
 <trip depart="0" from="-39071853" id="t86" to="-62057782" type="taxi"/>
 <trip depart="0" from="5095178#1" id="t87" to="-55636272#1" type="taxi"/>
 <trip depart="0" from="61279427#1" id="t88" to="-26165754#2" type="taxi"/>
 <trip depart="0" from="707213265" id="t89" to="631862806" type="taxi"/>
 <trip depart="0" from="-10559035" id="t90" to="-4485415" type="taxi"/>
 <trip depart="0" from="889565311#1" id="t91" to="56253839" type="taxi"/>
 <trip depart="0" from="30528971" id="t92" to="5230785" type="taxi"/>
 <trip depart="0" from="-85562446#0" id="t93" to="206172953" type="taxi"/>
 <trip depart="0" from="257423660#1" id="t94" to="142497097" type="taxi"/>
 <trip depart="0" from="-331442180" id="t95" to="24405231#1" type="taxi"/>
 <trip depart="0" from="-10372364#1" id="t96" to="-84018298" type="taxi"/>
 <trip depart="0" from="-22982192#0" id="t97" to="-335084841#1" type="taxi"/>
 <trip depart="0" from="26349563#0" id="t98" to="-206551701" type="taxi"/>
 <trip depart="0" from="78535798#2" id="t99" to="59699456" type="taxi"/>
 <trip depart="0" from="233171094#0" id="t100" to="-24031456#5" type="taxi"/>
 <trip depart="0" from="-331540404#0" id="t101" to="-4341507#0" type="taxi"/>
 <trip depart="0" from="5234702" id="t102" to="32461045#6" type="taxi"/>
 <trip depart="0" from="4353778#1" id="t103" to="-42792917#1" type="taxi"/>
 <trip depart="0" from="-169313833#0" id="t104" to="28231152-AddedOnRampEdge" type="taxi"/>
 <trip depart="0" from="224710093#1" id="t105" to="-24398203#2" type="taxi"/>
 <trip depart="0" from="50433682#0" id="t106" to="314252679" type="taxi"/>
 <trip depart="0" from="-287449681" id="t107" to="20179292#0" type="taxi"/>
 <trip depart="0" from="191374714#1" id="t108" to="29498959#0" type="taxi"/>
 <trip depart="0" from="-122529094#2" id="t109" to="24977246" type="taxi"/>
 <trip depart="0" from="28241504" id="t110" to="314426030#1" type="taxi"/>
 <trip depart="0" from="83633194" id="t111" to="44503434#1" type="taxi"/>
 <trip depart="0" from="328253310#1" id="t112" to="22604699#1" type="taxi"/>
 <trip depart="0" from="-39125215#0" id="t113" to="122529094#7" type="taxi"/>
 <trip depart="0" from="-321098627" id="t114" to="-4680624#1" type="taxi"/>
 <trip depart="0" from="61281860#1" id="t115" to="-21052315#0" type="taxi"/>
 <trip depart="0" from="61280133#1" id="t116" to="369180511#1" type="taxi"/>
 <trip depart="0" from="94107470" id="t117" to="-339760505#0" type="taxi"/>
 <trip depart="0" from="-77608974#0" id="t118" to="-4233644#2" type="taxi"/>
 <trip depart="0" from="75869950" id="t119" to="-5234464" type="taxi"/>
 <trip depart="0" from="117649862#2" id="t120" to="210457775#0" type="taxi"/>
 <trip depart="0" from="5231370" id="t121" to="-23960853#0" type="taxi"/>
 <trip depart="0" from="-30529008" id="t122" to="14994759" type="taxi"/>
 <trip depart="0" from="28912317#3" id="t123" to="206521449" type="taxi"/>
 <trip depart="0" from="349902608#1" id="t124" to="101521562" type="taxi"/>
 <trip depart="0" from="39139694" id="t125" to="61495635" type="taxi"/>
 <trip depart="0" from="-63116620#0" id="t126" to="-61984348" type="taxi"/>
 <trip depart="0" from="327572784" id="t127" to="-63134322#1" type="taxi"/>
 <trip depart="0" from="328266345" id="t128" to="4273629" type="taxi"/>
 <trip depart="0" from="4229427#2" id="t129" to="61367419#3" type="taxi"/>
 <trip depart="0" from="-4353778#3" id="t130" to="-102282708#0" type="taxi"/>
 <trip depart="0" from="-96596615#0" id="t131" to="30140141" type="taxi"/>
 <trip depart="0" from="-14434303" id="t132" to="-116049442" type="taxi"/>
 <trip depart="0" from="25976329#1" id="t133" to="121411753#0" type="taxi"/>
 <trip depart="0" from="-286243205" id="t134" to="-5095173" type="taxi"/>
 <trip depart="0" from="35605874#3" id="t135" to="654803138" type="taxi"/>
 <trip depart="0" from="38674845" id="t136" to="22762570" type="taxi"/>
 <trip depart="0" from="4353778#1" id="t137" to="26378883" type="taxi"/>
 <trip depart="0" from="159761033" id="t138" to="118864079#3" type="taxi"/>
 <trip depart="0" from="211199291" id="t139" to="4492787#1" type="taxi"/>
 <trip depart="0" from="38455339" id="t140" to="95916459" type="taxi"/>
 <trip depart="0" from="-96809695#2" id="t141" to="-75567703#0" type="taxi"/>
 <trip depart="0" from="233171094#2" id="t142" to="-27404368#1" type="taxi"/>
 <trip depart="0" from="-96556756" id="t143" to="-117643616" type="taxi"/>
 <trip depart="0" from="57070222" id="t144" to="30605198" type="taxi"/>
 <trip depart="0" from="-121411754" id="t145" to="-84017451#1" type="taxi"/>
 <trip depart="0" from="-211199290#1" id="t146" to="206521449" type="taxi"/>
 <trip depart="0" from="-80338645" id="t147" to="-26165754#2" type="taxi"/>
 <trip depart="0" from="61495635" id="t148" to="10557655" type="taxi"/>
 <trip depart="0" from="-154150880#0" id="t149" to="142497097" type="taxi"/>
 <trip depart="0" from="-96596623#0" id="t150" to="10559664#0" type="taxi"/>
 <trip depart="0" from="63322102#1" id="t151" to="57070222" type="taxi"/>
 <trip depart="0" from="102332986#0" id="t152" to="35067049" type="taxi"/>
 <trip depart="0" from="-61997814#0" id="t153" to="-117099147#2" type="taxi"/>
 <trip depart="0" from="644345097" id="t154" to="4250371" type="taxi"/>
 <trip depart="0" from="-26037066" id="t155" to="8064520" type="taxi"/>
 <trip depart="0" from="4227191" id="t156" to="-313693701" type="taxi"/>
 <trip depart="0" from="-237837493#0" id="t157" to="24405231#2" type="taxi"/>
 <trip depart="0" from="25976672" id="t158" to="26040355#2" type="taxi"/>
 <trip depart="0" from="-118864079#2" id="t159" to="-611245993" type="taxi"/>
 <trip depart="0" from="-10426171#0" id="t160" to="-362993458" type="taxi"/>
 <trip depart="0" from="117099170" id="t161" to="5095114" type="taxi"/>
 <trip depart="0" from="-26165752#1" id="t162" to="53682411#1" type="taxi"/>
 <trip depart="0" from="62106371#0" id="t163" to="36912210-AddedOnRampEdge" type="taxi"/>
 <trip depart="0" from="118155460" id="t164" to="-59683236#1" type="taxi"/>
 <trip depart="0" from="286243203#1" id="t165" to="-122529096#3" type="taxi"/>
 <trip depart="0" from="-10372461" id="t166" to="-94087965" type="taxi"/>
 <trip depart="0" from="118155456#1" id="t167" to="-26367881" type="taxi"/>
 <trip depart="0" from="-26121953" id="t168" to="47089824" type="taxi"/>
 <trip depart="0" from="125351107" id="t169" to="211129670#1" type="taxi"/>
 <trip depart="0" from="-22604695#1" id="t170" to="43263108" type="taxi"/>
 <trip depart="0" from="-5095178#0" id="t171" to="159761037" type="taxi"/>
 <trip depart="0" from="118155448" id="t172" to="-300981184#0" type="taxi"/>
 <trip depart="0" from="61495635" id="t173" to="8058345" type="taxi"/>
 <trip depart="0" from="-310738357" id="t174" to="4227191" type="taxi"/>
 <trip depart="0" from="-101731771" id="t175" to="122529094#7" type="taxi"/>
 <trip depart="0" from="44503435" id="t176" to="59603305#1" type="taxi"/>
 <trip depart="0" from="-61367454#0" id="t177" to="61496433" type="taxi"/>
 <trip depart="0" from="-137996243" id="t178" to="63322106#1" type="taxi"/>
 <trip depart="0" from="83173842#1" id="t179" to="314424822#1" type="taxi"/>
 <trip depart="0" from="28717883#0" id="t180" to="-61982177#0" type="taxi"/>
 <trip depart="0" from="26367998#1" id="t181" to="-376516738" type="taxi"/>
 <trip depart="0" from="234902999" id="t182" to="130637088" type="taxi"/>
 <trip depart="0" from="-345608028" id="t183" to="-644345097" type="taxi"/>
 <trip depart="0" from="132817964" id="t184" to="20826774" type="taxi"/>
 <trip depart="0" from="138350780#0" id="t185" to="118869284#0" type="taxi"/>
 <trip depart="0" from="-24031456#5" id="t186" to="-53357944" type="taxi"/>
 <trip depart="0" from="-34776024" id="t187" to="76737569" type="taxi"/>
 <trip depart="0" from="-136864084#2" id="t188" to="-369150317#1" type="taxi"/>
 <trip depart="0" from="83488859" id="t189" to="284410129" type="taxi"/>
 <trip depart="0" from="1081179231" id="t190" to="132852432" type="taxi"/>
 <trip depart="0" from="132793806" id="t191" to="-51306014" type="taxi"/>
 <trip depart="0" from="10425893#1" id="t192" to="-26121953" type="taxi"/>
 <trip depart="0" from="59699456" id="t193" to="-61566225#0" type="taxi"/>
 <trip depart="0" from="-63116620#0" id="t194" to="-61543316#0" type="taxi"/>
 <trip depart="0" from="208585109#1" id="t195" to="28105134" type="taxi"/>
 <trip depart="0" from="-4361947" id="t196" to="-62115261" type="taxi"/>
 <trip depart="0" from="301503168#1" id="t197" to="365469908" type="taxi"/>
 <trip depart="0" from="4227191" id="t198" to="-125351165#0" type="taxi"/>
 <trip depart="0" from="-73225130#0" id="t199" to="10425893#2" type="taxi"/>
 <trip depart="0" from="-117649868" id="t200" to="-61367412" type="taxi"/>
 <trip depart="0" from="5230785" id="t201" to="-237386917#1" type="taxi"/>
 <trip depart="0" from="136867909" id="t202" to="-98158886#0" type="taxi"/>
 <trip depart="0" from="116049788#1" id="t203" to="-42793238#1" type="taxi"/>
 <trip depart="0" from="122529096#7" id="t204" to="-34149612#1" type="taxi"/>
 <trip depart="0" from="331540404#1" id="t205" to="35873188" type="taxi"/>
 <trip depart="0" from="-84020452" id="t206" to="24405231#2" type="taxi"/>
 <trip depart="0" from="132047190" id="t207" to="-59683580#0" type="taxi"/>
 <trip depart="0" from="-286243201" id="t208" to="74359022" type="taxi"/>
 <trip depart="0" from="97694267" id="t209" to="-117624636#1" type="taxi"/>
 <trip depart="0" from="-18383726" id="t210" to="137996244#1" type="taxi"/>
 <trip depart="0" from="-16627594" id="t211" to="-153716505#1" type="taxi"/>
 <trip depart="0" from="5230785" id="t212" to="122529114#1" type="taxi"/>
 <trip depart="0" from="25153039#0" id="t213" to="-191374714#0" type="taxi"/>
 <trip depart="0" from="-84017451#1" id="t214" to="125858557#0" type="taxi"/>
 <trip depart="0" from="102332984#0" id="t215" to="117643608" type="taxi"/>
 <trip depart="0" from="-83187094" id="t216" to="-331540406" type="taxi"/>
 <trip depart="0" from="30528971" id="t217" to="-61281860#0" type="taxi"/>
 <trip depart="0" from="28377479#0" id="t218" to="4643592" type="taxi"/>
 <trip depart="0" from="-57726375#2" id="t219" to="93670626" type="taxi"/>
 <trip depart="0" from="26040355#1" id="t220" to="-61367424" type="taxi"/>
 <trip depart="0" from="-29712022" id="t221" to="234540368" type="taxi"/>
 <trip depart="0" from="63322102#1" id="t222" to="-95212556" type="taxi"/>
 <trip depart="0" from="-63116620#1" id="t223" to="104147692" type="taxi"/>
 <trip depart="0" from="-335084841#1" id="t224" to="-10558007#0" type="taxi"/>
 <trip depart="0" from="4238014" id="t225" to="5234757#0" type="taxi"/>
 <trip depart="0" from="-369150317#0" id="t226" to="14571550#1" type="taxi"/>
 <trip depart="0" from="-191374714#0" id="t227" to="24821927#1" type="taxi"/>
 <trip depart="0" from="-61280135" id="t228" to="28912203" type="taxi"/>
 <trip depart="0" from="61543316#1" id="t229" to="-84639212" type="taxi"/>
 <trip depart="0" from="84656705" id="t230" to="-122529096#6" type="taxi"/>
 <trip depart="0" from="-126140573#3" id="t231" to="-233220919" type="taxi"/>
 <trip depart="0" from="153716515" id="t232" to="125351165#0" type="taxi"/>
 <trip depart="0" from="-78535771" id="t233" to="4680624#1" type="taxi"/>
 <trip depart="0" from="-371261963#0" id="t234" to="38281640#1" type="taxi"/>
 <trip depart="0" from="-10425852" id="t235" to="-61367459" type="taxi"/>
 <trip depart="0" from="-26165754#2" id="t236" to="-136721679#0" type="taxi"/>
 <trip depart="0" from="285621713" id="t237" to="30015228#1" type="taxi"/>
 <trip depart="0" from="117643616" id="t238" to="-8058345" type="taxi"/>
 <trip depart="0" from="-34777320" id="t239" to="-10425852" type="taxi"/>
 <trip depart="0" from="-32732359" id="t240" to="-297159795#1" type="taxi"/>
 <trip depart="0" from="117654815#3" id="t241" to="-10426011#1" type="taxi"/>
 <trip depart="0" from="-404119038" id="t242" to="-10426219" type="taxi"/>
 <trip depart="0" from="-87525116" id="t243" to="-84020452" type="taxi"/>
 <trip depart="0" from="5234587" id="t244" to="118155460" type="taxi"/>
 <trip depart="0" from="-17265677" id="t245" to="15242125" type="taxi"/>
 <trip depart="0" from="-61523337" id="t246" to="1006265805#0" type="taxi"/>
 <trip depart="0" from="-22982190" id="t247" to="117624637#0" type="taxi"/>
 <trip depart="0" from="38435331" id="t248" to="117654819#1" type="taxi"/>
 <trip depart="0" from="4237991" id="t249" to="25508813" type="taxi"/>
 <trip depart="0" from="-314428600" id="t250" to="-8058345" type="taxi"/>
 <trip depart="0" from="78343351" id="t251" to="39297416" type="taxi"/>
 <trip depart="0" from="118155456#2" id="t252" to="116049443#1" type="taxi"/>
 <trip depart="0" from="-62106322#0" id="t253" to="117624637#1" type="taxi"/>
 <trip depart="0" from="-142497100#0" id="t254" to="118155456#0" type="taxi"/>
 <trip depart="0" from="133104420#0" id="t255" to="-416539515" type="taxi"/>
 <trip depart="0" from="-84639229#0" id="t256" to="-83488847" type="taxi"/>
 <trip depart="0" from="-125351110" id="t257" to="-290255303#2" type="taxi"/>
 <trip depart="0" from="-122529094#9" id="t258" to="-52291443" type="taxi"/>
 <trip depart="0" from="-611245993" id="t259" to="5067354#1" type="taxi"/>
 <trip depart="0" from="101521569#1" id="t260" to="217695968#1" type="taxi"/>
 <trip depart="0" from="30141563" id="t261" to="62057884#2" type="taxi"/>
 <trip depart="0" from="-96945485" id="t262" to="5234464" type="taxi"/>
 <trip depart="0" from="-15242128#0" id="t263" to="61371685#1" type="taxi"/>
 <trip depart="0" from="-159761036#1" id="t264" to="10425852" type="taxi"/>
 <trip depart="0" from="118864079#3" id="t265" to="-42793238#1" type="taxi"/>
 <person depart="1.0" id="p0">
  <ride from="321098632#1" lines="taxi" parkingArea="pa234899446" to="234899446"/>
 </person>
 <person depart="4.0" id="p1">
  <ride from="-38807023" lines="taxi" parkingArea="pa104147692" to="104147692"/>
 </person>
 <person depart="7.0" id="p2">
  <ride from="5231759" lines="taxi" parkingArea="pa29970080#0" to="29970080#0"/>
 </person>
 <trip depart="8.0" departLane="best" departSpeed="max" from="-52673136" id="rs_c000_i000_105" to="24429380-AddedOffRampEdge"/>
 <trip depart="13.0" departLane="best" departSpeed="max" from="-117654815#1" id="rs_c000_i000_148" to="25980639"/>
 <trip depart="17.0" departLane="best" departSpeed="max" from="-137996247" id="rs_c000_i000_194" to="58423646"/>
 <person depart="18.0" id="p3">
  <ride from="-63134322#1" lines="taxi" parkingArea="pa117654824#0" to="117654824#0"/>
 </person>
 <person depart="18.0" id="p4">
  <ride from="26959985" lines="taxi" parkingArea="pa362987791#0" to="362987791#0"/>
 </person>
 <trip depart="20.0" departLane="best" departSpeed="max" from="-61367432" id="rs_c000_i000_245" to="104147692"/>
 <person depart="22.0" id="p5">
  <ride from="-45578880" lines="taxi" parkingArea="pa39139679" to="39139679"/>
 </person>
 <trip depart="23.0" departLane="best" departSpeed="max" from="-122529098#1" id="rs_c000_i000_277" to="26187757#1"/>
 <trip depart="24.0" departLane="best" departSpeed="max" from="219528064" id="rs_c001_i001_7" to="234899446"/>
 <person depart="25.0" id="p6">
  <ride from="-122529110" lines="taxi" parkingArea="pa26187755#0" to="26187755#0"/>
 </person>
 <trip depart="25.0" departLane="best" departSpeed="max" from="56253839" id="rs_c000_i000_303" to="25980639"/>
 <trip depart="26.0" departLane="best" departSpeed="max" from="43263108" id="rs_c001_i000_42" to="30471451"/>
 <trip depart="27.0" departLane="best" departSpeed="max" from="-74011129#0" id="rs_c000_i001_35" to="25980639"/>
 <trip depart="33.0" departLane="best" departSpeed="max" from="290255300" id="rs_c000_i000_384" to="58423646"/>
 <trip depart="34.0" departLane="best" departSpeed="max" from="1080298604" id="rs_c001_i000_68" to="234899446"/>
 <trip depart="35.0" departLane="best" departSpeed="max" from="35605874#2" id="rs_c000_i000_411" to="-61984348"/>
 <trip depart="38.0" departLane="best" departSpeed="max" from="-62106322#0" id="rs_c000_i001_5_part1" to="25980639"/>
 <trip depart="41.0" departLane="best" departSpeed="max" from="4229427#1" id="rs_c001_i000_84" to="60727164#1"/>
 <trip depart="43.0" departLane="best" departSpeed="max" from="-122529102#1" id="rs_c001_i002_1" to="26187755#0"/>
 <trip depart="43.0" departLane="best" departSpeed="max" from="-10426204#1" id="rs_c001_i000_90" to="35062429#0"/>
 <trip depart="43.0" departLane="best" departSpeed="max" from="-95212556" id="rs_c000_i000_487" to="24428921"/>
 <trip depart="47.0" departLane="best" departSpeed="max" from="-122529096#6" id="rs_c000_i000_529" to="26187755#0"/>
 <trip depart="47.0" departLane="best" departSpeed="max" from="-136721671" id="rs_c000_i000_533" to="58423646"/>
 <trip depart="49.0" departLane="best" departSpeed="max" from="-286243203#1" id="rs_c000_i000_554" to="24405134"/>
 <trip depart="51.0" departLane="best" departSpeed="max" from="51340803#1" id="rs_c001_i000_35" to="35062429#0"/>
 <trip depart="52.0" departLane="best" departSpeed="max" from="-118869284#1" id="rs_c000_i000_598" to="144246396#1"/>
 <trip depart="53.0" departLane="best" departSpeed="max" from="-188890214" id="rs_c000_i000_610" to="28377479#0"/>
 <person depart="53.0" id="p7">
  <ride from="30326559" lines="taxi" parkingArea="pa34760663" to="34760663"/>
 </person>
 <trip depart="55.0" departLane="best" departSpeed="max" from="-61566225#0" id="rs_c000_i000_653" to="30471451"/>
 <person depart="56.0" id="p8">
  <ride from="4273624" lines="taxi" parkingArea="pa1081179231" to="1081179231"/>
 </person>
 <trip depart="57.0" departLane="best" departSpeed="max" from="26369517" id="rs_c000_i001_73" to="234899446"/>
 <trip depart="57.0" departLane="best" departSpeed="max" from="61496433" id="rs_c000_i001_79" to="28230831"/>
 <trip depart="57.0" departLane="best" departSpeed="max" from="-290255303#2" id="rs_c000_i001_81" to="26187757#1"/>
 <trip depart="57.0" departLane="best" departSpeed="max" from="462046218" id="rs_c000_i000_673" to="38455846"/>
 <person depart="57.0" id="p9">
  <ride from="24031456#4" lines="taxi" parkingArea="pa58423646" to="58423646"/>
 </person>
 <person depart="58.0" id="p10">
  <ride from="-118155456#2" lines="taxi" parkingArea="pa26187757#1" to="26187757#1"/>
 </person>
 <trip depart="58.0" departLane="best" departSpeed="max" from="-324738924" id="rs_c001_i000_127" to="234899446"/>
 <person depart="60.0" id="p11">
  <ride from="-15242127#1" lines="taxi" parkingArea="pa1081179231" to="1081179231"/>
 </person>
 <trip depart="61.0" departLane="best" departSpeed="max" from="47089824" id="rs_c000_i000_724" to="29970080#0"/>
 <person depart="64.0" id="p12">
  <ride from="-4680630" lines="taxi" parkingArea="pa24424238#0" to="24424238#0"/>
 </person>
 <person depart="67.0" id="p13">
  <ride from="51340803#1" lines="taxi" parkingArea="pa139124541#0" to="139124541#0"/>
 </person>
 <trip depart="67.0" departLane="best" departSpeed="max" from="-84017983" id="rs_c000_i001_97" to="35062429#0"/>
 <trip depart="67.0" departLane="best" departSpeed="max" from="-83488868" id="rs_c001_i000_149" to="104147692"/>
 <trip depart="70.0" departLane="best" departSpeed="max" from="-32016029#2" id="rs_c001_i000_156_part0" to="-26341966#1"/>
 <trip depart="72.0" departLane="best" departSpeed="max" from="-14573382#2" id="rs_c000_i000_843" to="35062429#0"/>
 <trip depart="74.0" departLane="best" departSpeed="max" from="-95100609" id="rs_c000_i000_864" to="58423646"/>
 <trip depart="74.0" departLane="best" departSpeed="max" from="24487041" id="rs_c000_i000_865" to="-330920155"/>
 <trip depart="75.0" departLane="best" departSpeed="max" from="-328253309#0" id="rs_c000_i001_110" to="362987791#0"/>
 <trip depart="75.0" departLane="best" departSpeed="max" from="-237367748#2" id="rs_c000_i000_879" to="530282943"/>
 <trip depart="76.0" departLane="best" departSpeed="max" from="-211208696#0" id="rs_c000_i001_20" to="102332984#0"/>
 <trip depart="76.0" departLane="best" departSpeed="max" from="116049443#1" id="rs_c000_i000_504_part1" to="26187755#0"/>
 <person depart="76.0" id="p14">
  <ride from="26040294#1" lines="taxi" parkingArea="pa58423646" to="58423646"/>
 </person>
 <trip depart="76.0" departLane="best" departSpeed="max" from="-10425858" id="rs_c000_i000_882" to="139124541#0"/>
 <person depart="76.0" id="p15">
  <ride from="117099159#2" lines="taxi" parkingArea="pa58423646" to="58423646"/>
 </person>
 <person depart="77.0" id="p16">
  <ride from="4226192#2" lines="taxi" parkingArea="pa234899446" to="234899446"/>
 </person>
 <trip depart="78.0" departLane="best" departSpeed="max" from="87397777" id="rs_c000_i000_896" to="362987791#0"/>
 <person depart="78.0" id="p17">
  <ride from="-96809683#1" lines="taxi" parkingArea="pa58423646" to="58423646"/>
 </person>
 <trip depart="79.0" departLane="best" departSpeed="max" from="-211208696#0" id="rs_c000_i000_161" to="102332984#0"/>
 <trip depart="79.0" departLane="best" departSpeed="max" from="-63322102#1" id="rs_c000_i000_918" to="25980639"/>
 <trip depart="81.0" departLane="best" departSpeed="max" from="51340803#1" id="rs_c000_i000_920" to="139124541#0"/>
 <person depart="82.0" id="p18">
  <ride from="-5234278#1" lines="taxi" parkingArea="pa102332984#0" to="102332984#0"/>
 </person>
 <trip depart="82.0" departLane="best" departSpeed="max" from="-136721672" id="rs_c000_i000_947" to="26187757#1"/>
 <trip depart="84.0" departLane="best" departSpeed="max" from="-117654815#3" id="rs_c000_i001_120" to="25980639"/>
 <trip depart="85.0" departLane="best" departSpeed="max" from="-188890214" id="rs_c000_i000_971" to="28377479#0"/>
 <trip depart="85.0" departLane="best" departSpeed="max" from="62789947#2" id="rs_c000_i000_975" to="25980639"/>
 <person depart="86.0" id="p19">
  <ride from="4353778#0" lines="taxi" parkingArea="pa58423646" to="58423646"/>
 </person>
 <trip depart="86.0" departLane="best" departSpeed="max" from="83163114#1" id="rs_c000_i000_990" to="39139679"/>
 <trip depart="86.0" departLane="best" departSpeed="max" from="-30141086#0" id="rs_c001_i000_186" to="38455846"/>
 <person depart="89.0" id="p20">
  <ride from="-24429416" lines="taxi" parkingArea="pa24429380-AddedOffRampEdge" to="24429380-AddedOffRampEdge"/>
 </person>
 <trip depart="89.0" departLane="best" departSpeed="max" from="26369585" id="rs_c001_i000_194" to="-61997814#0"/>
 <person depart="91.0" id="p21">
  <ride from="51340803#1" lines="taxi" parkingArea="pa35062429#0" to="35062429#0"/>
 </person>
 <trip depart="91.0" departLane="best" departSpeed="max" from="183247520" id="rs_c000_i001_131" to="35062429#0"/>
 <person depart="91.0" id="p22">
  <ride from="-85562446#0" lines="taxi" parkingArea="pa39139679" to="39139679"/>
 </person>
 <person depart="92.0" id="p23">
  <ride from="-26127182#1" lines="taxi" parkingArea="pa26187755#0" to="26187755#0"/>
 </person>
 <trip depart="93.0" departLane="best" departSpeed="max" from="51340803#1" id="rs_c001_i000_189" to="35062429#0"/>
 <trip depart="93.0" departLane="best" departSpeed="max" from="4643592" id="rs_c000_i001_133" to="362987791#0"/>
 <trip depart="96.0" departLane="best" departSpeed="max" from="15242129#1" id="rs_c000_i000_1095" to="38455846"/>
 <trip depart="98.0" departLane="best" departSpeed="max" from="-5234464" id="rs_c000_i000_1131" to="234899446"/>