<?xml version="1.0" encoding="utf-8"?>
<routes>
 <vType color="green" id="taxi" personCapacity="2" vClass="taxi">
  <param key="has.taxi.device" value="true"/>
  <param key="device.taxi.pickUpDuration" value="0"/>
  <param key="device.taxi.dropOffDuration" value="10"/>
  <param key="device.taxi.parking" value="true"/>
 </vType>
 <trip depart="0" from="86714180#1" id="t130" to="285621713" type="taxi"/>
 <trip depart="0" from="30141087" id="t129" to="35703222" type="taxi"/>
 <trip depart="0" from="-14571550#0" id="t128" to="22982190" type="taxi"/>
 <trip depart="0" from="4242592" id="t127" to="-169313833#2" type="taxi"/>
 <trip depart="0" from="83488859" id="t126" to="10559201" type="taxi"/>
 <trip depart="0" from="-34776023#0" id="t125" to="328253309#1" type="taxi"/>
 <trip depart="0" from="-217696286#1" id="t124" to="5234280#0" type="taxi"/>
 <trip depart="0" from="10558745" id="t123" to="-117099170" type="taxi"/>
 <trip depart="0" from="37523549#0" id="t122" to="117639101#0" type="taxi"/>
 <trip depart="0" from="300981184#1" id="t121" to="25976329#0" type="taxi"/>
 <trip depart="0" from="-5234137" id="t120" to="95916457" type="taxi"/>
 <trip depart="0" from="10559201" id="t119" to="118864084" type="taxi"/>
 <trip depart="0" from="188654001#0" id="t118" to="26085515#3" type="taxi"/>
 <trip depart="0" from="83173314" id="t117" to="138037521" type="taxi"/>
 <trip depart="0" from="117624637#0" id="t116" to="-4353778#1" type="taxi"/>
 <trip depart="0" from="4273623" id="t115" to="118864079#5" type="taxi"/>
 <trip depart="0" from="190981787" id="t114" to="4244655" type="taxi"/>
 <trip depart="0" from="4250372" id="t113" to="60727164#1" type="taxi"/>
 <trip depart="0" from="-121411748#1" id="t112" to="34178668" type="taxi"/>
 <trip depart="0" from="206521449" id="t111" to="-95212556" type="taxi"/>
 <trip depart="0" from="232177529#0" id="t110" to="-212694591" type="taxi"/>
 <trip depart="0" from="286340278" id="t109" to="-101520672" type="taxi"/>
 <trip depart="0" from="30528971" id="t108" to="-21052315#0" type="taxi"/>
 <trip depart="0" from="-211199290#1" id="t107" to="-95100609" type="taxi"/>
 <trip depart="0" from="132817972" id="t106" to="62106371#0" type="taxi"/>
 <trip depart="0" from="929213813" id="t105" to="206172953" type="taxi"/>
 <trip depart="0" from="30528972#0" id="t104" to="61367419#3" type="taxi"/>
 <trip depart="0" from="-211199290#1" id="t103" to="75869950" type="taxi"/>
 <trip depart="0" from="26349567#0" id="t102" to="-122529096#0" type="taxi"/>
 <trip depart="0" from="95916459" id="t101" to="286243200" type="taxi"/>
 <trip depart="0" from="136721670#1" id="t100" to="-84639207" type="taxi"/>
 <trip depart="0" from="-232184388" id="t99" to="61982177#1" type="taxi"/>
 <trip depart="0" from="-5095178#1" id="t98" to="20433136#0" type="taxi"/>
 <trip depart="0" from="83179014" id="t97" to="-26165752#1" type="taxi"/>
 <trip depart="0" from="136721667" id="t96" to="-208548185" type="taxi"/>
 <trip depart="0" from="-5095173" id="t95" to="-59603306" type="taxi"/>
 <trip depart="0" from="-285150555#0" id="t94" to="-61495638" type="taxi"/>
 <trip depart="0" from="26390583" id="t93" to="24477199" type="taxi"/>
 <trip depart="0" from="61543316#0" id="t92" to="-122529096#3" type="taxi"/>
 <trip depart="0" from="-14573382#3" id="t91" to="24977246" type="taxi"/>
 <trip depart="0" from="-10502291#1" id="t90" to="301503168#1" type="taxi"/>
 <trip depart="0" from="-312887967" id="t89" to="28717819#0" type="taxi"/>
 <trip depart="0" from="-61984348" id="t88" to="-80338645" type="taxi"/>
 <trip depart="0" from="-15242125" id="t87" to="-62789947#1" type="taxi"/>
 <trip depart="0" from="26040355#1" id="t86" to="-314424813" type="taxi"/>
 <trip depart="0" from="118864084" id="t85" to="463124698" type="taxi"/>
 <trip depart="0" from="-117649858" id="t84" to="138669848" type="taxi"/>
 <trip depart="0" from="62115256" id="t83" to="335559222" type="taxi"/>
 <trip depart="0" from="4233644#1" id="t82" to="25508813" type="taxi"/>
 <trip depart="0" from="51856551#0" id="t81" to="-10426171#0" type="taxi"/>
 <trip depart="0" from="-61279844#0" id="t80" to="61367449#1" type="taxi"/>
 <trip depart="0" from="94088835" id="t79" to="83163097#1" type="taxi"/>
 <trip depart="0" from="26349564#0" id="t78" to="-210457775#1" type="taxi"/>
 <trip depart="0" from="95937728#1" id="t77" to="30528972#0" type="taxi"/>
 <trip depart="0" from="4250372" id="t76" to="-61982179" type="taxi"/>
 <trip depart="0" from="540032980" id="t75" to="30140135" type="taxi"/>
 <trip depart="0" from="-63116620#1" id="t74" to="-32016029#2" type="taxi"/>
 <trip depart="0" from="17265677" id="t73" to="16345612#1" type="taxi"/>
 <trip depart="0" from="-237367748#1" id="t72" to="62057884#2" type="taxi"/>
 <trip depart="0" from="61496433" id="t71" to="5067346#1" type="taxi"/>
 <trip depart="0" from="-32461045#6" id="t70" to="10557655" type="taxi"/>
 <trip depart="0" from="28717819#0" id="t69" to="4220452#0" type="taxi"/>
 <trip depart="0" from="-16627594" id="t68" to="84023980" type="taxi"/>
 <trip depart="0" from="-96556756" id="t67" to="53682403#2" type="taxi"/>
 <trip depart="0" from="462046218" id="t66" to="-8102545" type="taxi"/>
 <trip depart="0" from="35873188" id="t65" to="30326720#1" type="taxi"/>
 <trip depart="0" from="-84016136" id="t64" to="5234590" type="taxi"/>
 <trip depart="0" from="63116494#1" id="t63" to="122529096#4" type="taxi"/>
 <trip depart="0" from="-96559363" id="t62" to="-26368316" type="taxi"/>
 <trip depart="0" from="-5234464" id="t61" to="117631291#0" type="taxi"/>
 <trip depart="0" from="-211208696#0" id="t60" to="-29712022" type="taxi"/>
 <trip depart="0" from="29712334#0" id="t59" to="24399330#1" type="taxi"/>
 <trip depart="0" from="34036603" id="t58" to="14571549" type="taxi"/>
 <trip depart="0" from="-74694793" id="t57" to="286404309" type="taxi"/>
 <trip depart="0" from="83488859" id="t56" to="95937943#2" type="taxi"/>
 <trip depart="0" from="331444958" id="t55" to="-125351107" type="taxi"/>
 <trip depart="0" from="104147692" id="t54" to="86714180#1" type="taxi"/>
 <trip depart="0" from="-84639207" id="t53" to="39139679" type="taxi"/>
 <trip depart="0" from="84656707#1" id="t52" to="-95212556" type="taxi"/>
 <trip depart="0" from="-45578880" id="t51" to="-26121953" type="taxi"/>
 <trip depart="0" from="206521449" id="t50" to="142497101#0" type="taxi"/>
 <trip depart="0" from="94107470" id="t49" to="211199291" type="taxi"/>
 <trip depart="0" from="-34777320" id="t48" to="20826774" type="taxi"/>
 <trip depart="0" from="-237837493#0" id="t47" to="-117643608" type="taxi"/>
 <trip depart="0" from="122529102#1" id="t46" to="-58603104" type="taxi"/>
 <trip depart="0" from="74011129#1" id="t45" to="-10426021#1" type="taxi"/>
 <trip depart="0" from="233171094#1" id="t44" to="408861540" type="taxi"/>
 <trip depart="0" from="-14571550#1" id="t43" to="74011129#1" type="taxi"/>
 <trip depart="0" from="30140135" id="t42" to="8064520" type="taxi"/>
 <trip depart="0" from="37076917" id="t41" to="25976329#1" type="taxi"/>
 <trip depart="0" from="10425893#2" id="t40" to="61566223" type="taxi"/>
 <trip depart="0" from="-10426021#1" id="t39" to="233171094#0" type="taxi"/>
 <trip depart="0" from="-28918381#0" id="t38" to="8102545" type="taxi"/>
 <trip depart="0" from="132047190" id="t37" to="125351165#1" type="taxi"/>
 <trip depart="0" from="15242126" id="t36" to="5234573#1" type="taxi"/>
 <trip depart="0" from="-169313833#3" id="t35" to="-117624636#1" type="taxi"/>
 <trip depart="0" from="25620728" id="t34" to="-94194722" type="taxi"/>
 <trip depart="0" from="25976672" id="t33" to="5234274" type="taxi"/>
 <trip depart="0" from="37523549#0" id="t32" to="4229445" type="taxi"/>
 <trip depart="0" from="-5234573#1" id="t31" to="116049443#1" type="taxi"/>
 <trip depart="0" from="432309153" id="t30" to="86714180#1" type="taxi"/>
 <trip depart="0" from="4361529#0" id="t29" to="34178669" type="taxi"/>
 <trip depart="0" from="-10426219" id="t28" to="4238014" type="taxi"/>
 <trip depart="0" from="-50738089#1" id="t27" to="61279844#1" type="taxi"/>
 <trip depart="0" from="24592573" id="t26" to="34760663" type="taxi"/>
 <trip depart="0" from="-300060711" id="t25" to="233171094#1" type="taxi"/>
 <trip depart="0" from="97694266" id="t24" to="5067354#1" type="taxi"/>
 <trip depart="0" from="118155448" id="t23" to="-30141087" type="taxi"/>
 <trip depart="0" from="-10425858" id="t22" to="285621702#1" type="taxi"/>
 <trip depart="0" from="38383704" id="t21" to="17462089#0" type="taxi"/>
 <trip depart="0" from="38455846" id="t20" to="-313724641#1" type="taxi"/>
 <trip depart="0" from="-61543316#1" id="t19" to="-10372376" type="taxi"/>
 <trip depart="0" from="462046218" id="t18" to="24487041" type="taxi"/>
 <trip depart="0" from="83163097#1" id="t17" to="-122529094#3" type="taxi"/>
 <trip depart="0" from="35062429#0" id="t16" to="191374712#1" type="taxi"/>
 <trip depart="0" from="-117643614#1" id="t15" to="-53682403#0" type="taxi"/>
 <trip depart="0" from="138037521" id="t14" to="-117656067#0" type="taxi"/>
 <trip depart="0" from="707213265" id="t13" to="-26040356#1" type="taxi"/>
 <trip depart="0" from="122529096#5" id="t12" to="-208548185" type="taxi"/>
 <trip depart="0" from="38336405#3" id="t11" to="-61280135" type="taxi"/>
 <trip depart="0" from="-61371685#0" id="t10" to="62106371#0" type="taxi"/>
 <trip depart="0" from="35062429#2" id="t9" to="-24429415" type="taxi"/>
 <trip depart="0" from="-95937943#0" id="t8" to="35062429#2" type="taxi"/>
 <trip depart="0" from="20433136#1" id="t7" to="26040355#2" type="taxi"/>
 <trip depart="0" from="63322102#2" id="t6" to="-122529094#8" type="taxi"/>
 <trip depart="0" from="-126709272#0" id="t5" to="-84016143" type="taxi"/>
 <trip depart="0" from="136721675" id="t4" to="-79690674#0" type="taxi"/>
 <trip depart="0" from="24592573" id="t3" to="26037066" type="taxi"/>
 <trip depart="0" from="62115256" id="t2" to="30141243" type="taxi"/>
 <trip depart="0" from="-5096639" id="t1" to="-101486395" type="taxi"/>
 <trip depart="0" from="81646465#1" id="t0" to="30786472" type="taxi"/>
 <trip depart="4.0" departLane="best" departSpeed="max" from="-26037066" id="rs_c000_i000_49" to="58423646"/>
 <trip depart="5.0" departLane="best" departSpeed="max" from="-126709272#1" id="rs_c000_i000_57" to="102332984#0"/>
 <trip depart="7.0" departLane="best" departSpeed="max" from="5231759" id="rs_c000_i000_81" to="29970080#0"/>
 <person depart="8.0" id="p0">
  <ride from="-52673136" lines="taxi" parkingArea="pa24429380-AddedOffRampEdge" to="24429380-AddedOffRampEdge"/>
 </person>
 <trip depart="13.0" departLane="best" departSpeed="max" from="-117654815#1" id="rs_c000_i000_148" to="25980639"/>
 <trip depart="18.0" departLane="best" departSpeed="max" from="-63134322#1" id="rs_c001_i000_31" to="117654824#0"/>
 <trip depart="22.0" departLane="best" departSpeed="max" from="-45578880" id="rs_c000_i000_260" to="39139679"/>
 <person depart="24.0" id="p1">
  <ride from="219528064" lines="taxi" parkingArea="pa234899446" to="234899446"/>
 </person>
 <trip depart="24.0" departLane="best" departSpeed="max" from="-117643614#1" id="rs_c000_i001_32" to="117654824#0"/>
 <trip depart="27.0" departLane="best" departSpeed="max" from="-74011129#0" id="rs_c000_i001_35" to="25980639"/>
 <trip depart="34.0" departLane="best" departSpeed="max" from="1080298604" id="rs_c001_i000_68" to="234899446"/>
 <trip depart="35.0" departLane="best" departSpeed="max" from="35605874#2" id="rs_c000_i000_411" to="-61984348"/>
 <trip depart="38.0" departLane="best" departSpeed="max" from="-62106322#0" id="rs_c000_i001_5_part1" to="25980639"/>
 <trip depart="41.0" departLane="best" departSpeed="max" from="4229427#1" id="rs_c001_i000_84" to="60727164#1"/>
 <trip depart="41.0" departLane="best" departSpeed="max" from="10557712" id="rs_c000_i000_475" to="1081179231"/>
 <trip depart="47.0" departLane="best" departSpeed="max" from="-122529096#6" id="rs_c000_i000_529" to="26187755#0"/>
 <trip depart="47.0" departLane="best" departSpeed="max" from="-136721671" id="rs_c000_i000_533" to="58423646"/>
 <trip depart="51.0" departLane="best" departSpeed="max" from="-61997814#0" id="rs_c000_i000_584" to="379527001"/>
 <trip depart="55.0" departLane="best" departSpeed="max" from="-61566225#0" id="rs_c000_i000_653" to="30471451"/>
 <person depart="56.0" id="p2">
  <ride from="4273624" lines="taxi" parkingArea="pa1081179231" to="1081179231"/>
 </person>
 <person depart="57.0" id="p3">
  <ride from="-290255303#2" lines="taxi" parkingArea="pa26187757#1" to="26187757#1"/>
 </person>
 <person depart="57.0" id="p4">
  <ride from="462046218" lines="taxi" parkingArea="pa38455846" to="38455846"/>
 </person>
 <trip depart="57.0" departLane="best" departSpeed="max" from="24031456#4" id="rs_c000_i000_681" to="58423646"/>
 <trip depart="60.0" departLane="best" departSpeed="max" from="-15242127#1" id="rs_c000_i000_711" to="1081179231"/>
 <person depart="61.0" id="p5">
  <ride from="47089824" lines="taxi" parkingArea="pa29970080#0" to="29970080#0"/>
 </person>
 <trip depart="67.0" departLane="best" departSpeed="max" from="-83488868" id="rs_c001_i000_149" to="104147692"/>
 <trip depart="74.0" departLane="best" departSpeed="max" from="-95100609" id="rs_c000_i000_864" to="58423646"/>
 <person depart="74.0" id="p6">
  <ride from="24487041" lines="taxi" parkingArea="pa-330920155" to="-330920155"/>
 </person>
 <person depart="75.0" id="p7">
  <ride from="-237367748#2" lines="taxi" parkingArea="pa530282943" to="530282943"/>
 </person>
 <trip depart="76.0" departLane="best" departSpeed="max" from="-211208696#0" id="rs_c000_i001_20" to="102332984#0"/>
 <trip depart="78.0" departLane="best" departSpeed="max" from="87397777" id="rs_c000_i000_896" to="362987791#0"/>
 <trip depart="78.0" departLane="best" departSpeed="max" from="-96809683#1" id="rs_c000_i000_912" to="58423646"/>
 <person depart="79.0" id="p8">
  <ride from="-211208696#0" lines="taxi" parkingArea="pa102332984#0" to="102332984#0"/>
 </person>
 <trip depart="81.0" departLane="best" departSpeed="max" from="51340803#1" id="rs_c000_i000_920" to="139124541#0"/>
 <trip depart="82.0" departLane="best" departSpeed="max" from="-5234278#1" id="rs_c000_i000_940" to="102332984#0"/>
 <person depart="84.0" id="p9">
  <ride from="-117654815#3" lines="taxi" parkingArea="pa25980639" to="25980639"/>
 </person>
 <person depart="85.0" id="p10">
  <ride from="-188890214" lines="taxi" parkingArea="pa28377479#0" to="28377479#0"/>
 </person>
 <person depart="86.0" id="p11">
  <ride from="301503168#1" lines="taxi" parkingArea="pa35061798" to="35061798"/>
 </person>
 <person depart="86.0" id="p12">
  <ride from="-30141086#0" lines="taxi" parkingArea="pa38455846" to="38455846"/>
 </person>
 <trip depart="91.0" departLane="best" departSpeed="max" from="51340803#1" id="rs_c001_i000_59" to="35062429#0"/>
 <trip depart="92.0" departLane="best" departSpeed="max" from="-328266345" id="rs_c000_i000_1050" to="102332984#0"/>
 <person depart="98.0" id="p13">
  <ride from="-5234464" lines="taxi" parkingArea="pa234899446" to="234899446"/>
 </person>
 <person depart="100.0" id="p14">
  <ride from="-328813517" lines="taxi" parkingArea="pa104147692" to="104147692"/>
 </person>
 <trip depart="103.0" departLane="best" departSpeed="max" from="-4361529#0" id="rs_c001_i002_4" to="24428921"/>
 <trip depart="105.0" departLane="best" departSpeed="max" from="-211208696#0" id="rs_c001_i000_103" to="234899446"/>
 <trip depart="112.0" departLane="best" departSpeed="max" from="-95937728#1" id="rs_c000_i000_782_part1" to="144246396#1"/>
 <trip depart="119.0" departLane="best" departSpeed="max" from="301503168#1" id="rs_c001_i000_113" to="35061798"/>
 <person depart="121.0" id="p15">
  <ride from="5091199" lines="taxi" parkingArea="pa34760663" to="34760663"/>
 </person>
 <person depart="123.0" id="p16">
  <ride from="126449231#0" lines="taxi" parkingArea="pa234899446" to="234899446"/>
 </person>
 <person depart="124.0" id="p17">
  <ride from="-122529094#5" lines="taxi" parkingArea="pa144246396#1" to="144246396#1"/>
 </person>
 <trip depart="124.0" departLane="best" departSpeed="max" from="4244655" id="rs_c000_i000_1413" to="102332984#0"/>
 <person depart="125.0" id="p18">
  <ride from="5095190#0" lines="taxi" parkingArea="pa34760663" to="34760663"/>
 </person>
 <person depart="126.0" id="p19">
  <ride from="-95937728#1" lines="taxi" parkingArea="pa144246396#1" to="144246396#1"/>
 </person>
 <trip depart="127.0" departLane="best" departSpeed="max" from="136864086" id="rs_c000_i000_1442" to="58423646"/>
 <person depart="130.0" id="p20">
  <ride from="-9604697" lines="taxi" parkingArea="pa-330920155" to="-330920155"/>
 </person>
 <trip depart="131.0" departLane="best" departSpeed="max" from="-61371680#0" id="rs_c000_i000_1484" to="104147692"/>
 <trip depart="133.0" departLane="best" departSpeed="max" from="-79690674#0" id="rs_c000_i002_6" to="34760663"/>
 <trip depart="136.0" departLane="best" departSpeed="max" from="10559201" id="rs_c000_i001_200" to="35062429#0"/>
 <trip depart="142.0" departLane="best" departSpeed="max" from="26085515#5" id="rs_c000_i000_1609" to="58423646"/>
 <trip depart="143.0" departLane="best" departSpeed="max" from="-14994763" id="rs_c000_i000_1620" to="116049788#1"/>
 <trip depart="143.0" departLane="best" departSpeed="max" from="4492786" id="rs_c000_i000_1621" to="102332984#0"/>
 <trip depart="146.0" departLane="best" departSpeed="max" from="-328040089" id="rs_c000_i000_1649" to="5091199"/>
 <person depart="149.0" id="p21">
  <ride from="-95937728#1" lines="taxi" parkingArea="pa144246396#1" to="144246396#1"/>
 </person>
 <trip depart="151.0" departLane="best" departSpeed="max" from="-28918381#4" id="rs_c000_i000_1713" to="24405147"/>
 <trip depart="153.0" departLane="best" departSpeed="max" from="-79690674#0" id="rs_c001_i000_195" to="34760663"/>
 <trip depart="154.0" departLane="best" departSpeed="max" from="-95937943#2" id="rs_c000_i000_1419_part1" to="24428921"/>
 <trip depart="165.0" departLane="best" departSpeed="max" from="-234540368" id="rs_c000_i000_1853" to="38325510"/>
 <person depart="169.0" id="p22">
  <ride from="-328813517" lines="taxi" parkingArea="pa234899446" to="234899446"/>
 </person>
 <trip depart="170.7" departLane="best" departSpeed="max" from="-30471451" id="rs_c000_i001_157" to="60727164#1"/>
 <person depart="171.0" id="p23">
  <ride from="462046218" lines="taxi" parkingArea="pa38455846" to="38455846"/>
 </person>
 <trip depart="175.0" departLane="best" departSpeed="max" from="-95937943#0" id="rs_c000_i000_1956" to="58423646"/>
 <person depart="176.0" id="p24">
  <ride from="8102482" lines="taxi" parkingArea="pa24429380-AddedOffRampEdge" to="24429380-AddedOffRampEdge"/>
 </person>
 <trip depart="177.0" departLane="best" departSpeed="max" from="142497097" id="rs_c000_i000_1978" to="362987791#0"/>
 <trip depart="177.0" departLane="best" departSpeed="max" from="51856551#0" id="rs_c001_i000_348" to="30471451"/>
 <person depart="178.63" id="p25">
  <ride from="-30471451" lines="taxi" parkingArea="pa102332984#0" to="102332984#0"/>
 </person>
 <trip depart="187.0" departLane="best" departSpeed="max" from="14571550#1" id="rs_c000_i002_46" to="38455846"/>
 <trip depart="188.0" departLane="best" departSpeed="max" from="-644345091#0" id="rs_c001_i000_292" to="60727164#1"/>
 <trip depart="193.0" departLane="best" departSpeed="max" from="-211208696#0" id="rs_c001_i000_276" to="234899446"/>
 <trip depart="195.0" departLane="best" departSpeed="max" from="-10426011#1" id="rs_c000_i000_2147" to="139124541#0"/>
 <trip depart="197.0" departLane="best" departSpeed="max" from="-87397780" id="rs_c000_i001_293" to="1081179231"/>
 <trip depart="198.0" departLane="best" departSpeed="max" from="321098632#1" id="rs_c000_i000_2183" to="362987791#0"/>
 <trip depart="200.0" departLane="best" departSpeed="max" from="-136721672" id="rs_c000_i000_2199" to="26187757#1"/>
 <trip depart="201.0" departLane="best" departSpeed="max" from="-929213813" id="rs_c000_i000_2221" to="58423646"/>
 <trip depart="203.0" departLane="best" departSpeed="max" from="462046218" id="rs_c000_i000_2238" to="38455846"/>
 <trip depart="206.0" departLane="best" departSpeed="max" from="-4233644#2" id="rs_c000_i001_306" to="530282943"/>
 <trip depart="209.0" departLane="best" departSpeed="max" from="-765843955" id="rs_c000_i000_2309" to="362987791#0"/>
 <person depart="212.0" id="p26">
  <ride from="-34149612#0" lines="taxi" parkingArea="pa58423646" to="58423646"/>
 </person>
 <trip depart="214.0" departLane="best" departSpeed="max" from="-313693701" id="rs_c000_i000_2368" to="39139679"/>
 <trip depart="214.0" departLane="best" departSpeed="max" from="-369150317#0" id="rs_c000_i000_2371" to="58423646"/>
 <trip depart="219.0" departLane="best" departSpeed="max" from="-62106322#0" id="rs_c000_i000_376" to="25980639"/>
 <trip depart="219.0" departLane="best" departSpeed="max" from="906802009" id="rs_c001_i000_425" to="234899446"/>
 <person depart="224.0" id="p27">
  <ride from="-26127182#2" lines="taxi" parkingArea="pa26187755#0" to="26187755#0"/>
 </person>
 <trip depart="225.49" departLane="best" departSpeed="max" from="-30471451" id="rs_c001_i000_256" to="60727164#1"/>
 <trip depart="234.0" departLane="best" departSpeed="max" from="-61371685#0" id="rs_c000_i000_2581" to="104147692"/>
 <trip depart="238.0" departLane="best" departSpeed="max" from="117099147#0" id="rs_c000_i000_2613" to="58423646"/>
 <trip depart="238.0" departLane="best" departSpeed="max" from="-237837493#0" id="rs_c000_i000_2622" to="39139679"/>
 <trip depart="242.0" departLane="best" departSpeed="max" from="-10426171#1" id="rs_c001_i000_473" to="35062429#0"/>
 <person depart="244.0" id="p28">
  <ride from="-122529102#3" lines="taxi" parkingArea="pa144246396#1" to="144246396#1"/>
 </person>
 <trip depart="247.0" departLane="best" departSpeed="max" from="35061795" id="rs_c001_i000_480" to="38325510"/>
 <trip depart="250.0" departLane="best" departSpeed="max" from="59699456" id="rs_c000_i000_2742" to="39139679"/>
 <trip depart="257.0" departLane="best" departSpeed="max" from="-79690674#0" id="rs_c001_i000_132" to="30471451"/>
 <person depart="259.8" id="p29">
  <ride from="-30471451" lines="taxi" parkingArea="pa60727164#1" to="60727164#1"/>
 </person>
 <trip depart="260.0" departLane="best" departSpeed="max" from="-15242129#0" id="rs_c000_i001_391" to="38455846"/>
 <person depart="262.0" id="p30">
  <ride from="-136721679#0" lines="taxi" parkingArea="pa26187757#1" to="26187757#1"/>
 </person>
 <trip depart="265.0" departLane="best" departSpeed="max" from="-63322102#1" id="rs_c000_i000_2907" to="25980639"/>
 <person depart="265.0" id="p31">
  <ride from="-10372364#0" lines="taxi" parkingArea="pa102332984#0" to="102332984#0"/>
 </person>
 <trip depart="266.0" departLane="best" departSpeed="max" from="-212694591" id="rs_c000_i000_2921" to="26187755#0"/>
 <person depart="267.0" id="p32">
  <ride from="-211129670#0" lines="taxi" parkingArea="pa530282943" to="530282943"/>
 </person>
 <trip depart="274.0" departLane="best" departSpeed="max" from="-95937728#1" id="rs_c000_i001_252" to="144246396#1"/>
 <trip depart="274.87" departLane="best" departSpeed="max" from="-30471451" id="rs_c000_i000_605" to="362987791#0"/>
 <trip depart="277.78" departLane="best" departSpeed="max" from="240100844#0" id="rs_c001_i000_160" to="530282943"/>
 <trip depart="279.0" departLane="best" departSpeed="max" from="-16345605#0" id="rs_c000_i001_424" to="139124541#0"/>
 <trip depart="285.0" departLane="best" departSpeed="max" from="-301127378" id="rs_c000_i001_435" to="35062429#0"/>
 <trip depart="290.0" departLane="best" departSpeed="max" from="-14434303" id="rs_c001_i000_551" to="35062429#0"/>
 <trip depart="293.0" departLane="best" departSpeed="max" from="237386917#0" id="rs_c000_i000_3233" to="-330920155"/>
 <trip depart="293.0" departLane="best" departSpeed="max" from="-78343357" id="rs_c000_i000_3235" to="117654824#0"/>
 <trip depart="295.0" departLane="best" departSpeed="max" from="4643592" id="rs_c000_i000_3244" to="234899446"/>
 <person depart="296.0" id="p33">
  <ride from="62059875#1" lines="taxi" parkingArea="pa34760663" to="34760663"/>
 </person>
 <trip depart="297.0" departLane="best" departSpeed="max" from="300981184#0" id="rs_c000_i000_3262" to="26187757#1"/>
 <trip depart="297.0" departLane="best" departSpeed="max" from="84656707#1" id="rs_c000_i000_3268" to="39139679"/>
 <trip depart="299.0" departLane="best" departSpeed="max" from="-24399330#1" id="rs_c001_i000_471" to="58423646"/>
 <trip depart="300.51" departLane="best" departSpeed="max" from="240100844#0" id="rs_c000_i001_171" to="530282943"/>
 <trip depart="303.0" departLane="best" departSpeed="max" from="-138350778#0" id="rs_c000_i000_3335" to="25980639"/>
 <person depart="304.0" id="p34">
  <ride from="-125589533" lines="taxi" parkingArea="pa530282943" to="530282943"/>
 </person>
 <trip depart="305.0" departLane="best" departSpeed="max" from="35772871" id="rs_c000_i002_65" to="24429380-AddedOffRampEdge"/>
 <person depart="306.0" id="p35">
  <ride from="-96700281" lines="taxi" parkingArea="pa286340278" to="286340278"/>
 </person>
 <trip depart="308.0" departLane="best" departSpeed="max" from="-95937728#1" id="rs_c000_i001_397" to="144246396#1"/>
 <trip depart="309.0" departLane="best" departSpeed="max" from="-314422898#0" id="rs_c000_i000_3396" to="39139679"/>
 <trip depart="311.0" departLane="best" departSpeed="max" from="-290255303#2" id="rs_c000_i000_3424" to="26187757#1"/>
 <trip depart="313.0" departLane="best" departSpeed="max" from="-34776023#0" id="rs_c000_i001_484" to="26187757#1"/>
 <trip depart="316.0" departLane="best" departSpeed="max" from="-211208696#0" id="rs_c001_i000_417" to="24424238#0"/>
 <trip depart="317.34" departLane="best" departSpeed="max" from="58097865" id="rs_c001_i000_86" to="104147692"/>
 <trip depart="318.0" departLane="best" departSpeed="max" from="84656707#1" id="rs_c000_i000_3508" to="39139679"/>
 <trip depart="320.27" departLane="best" departSpeed="max" from="257423660#1" id="rs_c001_i000_187" to="30471451"/>
 <trip depart="321.0" departLane="best" departSpeed="max" from="-95937728#1" id="rs_c000_i000_2701" to="144246396#1"/>
 <person depart="321.11" id="p36">
  <ride from="240100844#0" lines="taxi" parkingArea="pa530282943" to="530282943"/>
 </person>
 <trip depart="323.36" departLane="best" departSpeed="max" from="38674850" id="rs_c001_i000_87" to="38674844"/>
 <trip depart="335.0" departLane="best" departSpeed="max" from="-101521565" id="rs_c000_i000_3685" to="117654824#0"/>
 <person depart="342.0" id="p37">
  <ride from="61367425#1" lines="taxi" parkingArea="pa24429380-AddedOffRampEdge" to="24429380-AddedOffRampEdge"/>
 </person>
 <trip depart="342.0" departLane="best" departSpeed="max" from="-314424813" id="rs_c000_i000_3765" to="362987791#0"/>
 <trip depart="343.0" departLane="best" departSpeed="max" from="5095166" id="rs_c001_i000_652" to="30471451"/>
 <trip depart="346.0" departLane="best" departSpeed="max" from="-122529110" id="rs_c000_i000_3802" to="144246396#1"/>
 <trip depart="347.0" departLane="best" departSpeed="max" from="-211208696#0" id="rs_c001_i000_536" to="234899446"/>
 <person depart="348.0" id="p38">
  <ride from="-122529101" lines="taxi" parkingArea="pa26187755#0" to="26187755#0"/>
 </person>
 <trip depart="355.0" departLane="best" departSpeed="max" from="-8394848" id="rs_c000_i002_77" to="39139679"/>
 <trip depart="356.0" departLane="best" departSpeed="max" from="5091197#0" id="rs_c000_i000_3899" to="104147692"/>
 <trip depart="358.0" departLane="best" departSpeed="max" from="86527638#1" id="rs_c000_i000_3936" to="1081179231"/>
 <person depart="359.36" id="p39">
  <ride from="58097865" lines="taxi" parkingArea="pa104147692" to="104147692"/>
 </person>
 <trip depart="361.0" departLane="best" departSpeed="max" from="79057000" id="rs_c000_i000_3966" to="60727164#1"/>
 <trip depart="363.0" departLane="best" departSpeed="max" from="-211120148" id="rs_c001_i000_523" to="35062429#0"/>
 <person depart="363.0" id="p40">
  <ride from="-5230785" lines="taxi" parkingArea="pa60727164#1" to="60727164#1"/>
 </person>
 <trip depart="364.0" departLane="best" departSpeed="max" from="166533654#1" id="rs_c001_i000_690" to="35062429#0"/>
 <trip depart="364.25" departLane="best" departSpeed="max" from="58097865" id="rs_c001_i000_232" to="104147692"/>
 <trip depart="365.0" departLane="best" departSpeed="max" from="118864079#1" id="rs_c000_i000_4008" to="26187757#1"/>
 <trip depart="367.0" departLane="best" departSpeed="max" from="94107492" id="rs_c001_i000_696" to="234899446"/>
 <trip depart="368.0" departLane="best" departSpeed="max" from="4353778#1" id="rs_c000_i000_4037" to="58423646"/>
 <person depart="368.0" id="p41">
  <ride from="-122529094#6" lines="taxi" parkingArea="pa26187755#0" to="26187755#0"/>
 </person>
 <person depart="368.93" id="p42">
  <ride from="257423660#1" lines="taxi" parkingArea="pa104147692" to="104147692"/>
 </person>
 <trip depart="377.0" departLane="best" departSpeed="max" from="166533654#1" id="rs_c000_i000_4161" to="139124541#0"/>
 <person depart="379.0" id="p43">
  <ride from="-211208696#0" lines="taxi" parkingArea="pa24424238#0" to="24424238#0"/>
 </person>
 <trip depart="381.0" departLane="best" departSpeed="max" from="-212694591" id="rs_c000_i000_4215" to="26187755#0"/>
 <trip depart="382.0" departLane="best" departSpeed="max" from="-32016573" id="rs_c000_i000_4217" to="104147692"/>
 <trip depart="383.0" departLane="best" departSpeed="max" from="-14571550#0" id="rs_c000_i001_587" to="35062429#0"/>
 <person depart="384.0" id="p44">
  <ride from="-58603104" lines="taxi" parkingArea="pa117654824#0" to="117654824#0"/>
 </person>
 <trip depart="384.96" departLane="best" departSpeed="max" from="30471452#0" id="rs_c000_i000_112" to="-61565232#0"/>
 <person depart="386.0" id="p45">
  <ride from="24398203#1" lines="taxi" parkingArea="pa58423646" to="58423646"/>
 </person>
 <person depart="388.0" id="p46">