<?xml version="1.0" encoding="utf-8"?>
<routes>
 <vType color="green" id="taxi" personCapacity="2" vClass="taxi">
  <param key="has.taxi.device" value="true"/>
  <param key="device.taxi.pickUpDuration" value="0"/>
  <param key="device.taxi.dropOffDuration" value="10"/>
  <param key="device.taxi.parking" value="true"/>
 </vType>
 <trip depart="0" from="-61566225#0" id="t0" to="84018022#1" type="taxi"/>
 <trip depart="0" from="-314256365#0" id="t1" to="-4244482#1" type="taxi"/>
 <trip depart="0" from="-26040356#1" id="t2" to="24031456#6" type="taxi"/>
 <trip depart="0" from="86714180#1" id="t3" to="-122529094#10" type="taxi"/>
 <trip depart="0" from="83488895#1" id="t4" to="117654826" type="taxi"/>
 <trip depart="0" from="-61523337" id="t5" to="10559201" type="taxi"/>
 <trip depart="0" from="-125351110" id="t6" to="-74693877" type="taxi"/>
 <trip depart="0" from="-644345091#0" id="t7" to="-191374715#1" type="taxi"/>
 <trip depart="0" from="-32461045#3" id="t8" to="4250371" type="taxi"/>
 <trip depart="0" from="28912203" id="t9" to="5234274" type="taxi"/>
 <trip depart="0" from="-20179292#1" id="t10" to="61367449#1" type="taxi"/>
 <trip depart="0" from="1080293510" id="t11" to="1052613455" type="taxi"/>
 <trip depart="0" from="-371261963#0" id="t12" to="53682403#0" type="taxi"/>
 <trip depart="0" from="1006265805#0" id="t13" to="-85562446#0" type="taxi"/>
 <trip depart="0" from="96596623#1" id="t14" to="122529098#0" type="taxi"/>
 <trip depart="0" from="-161176858" id="t15" to="126140573#0" type="taxi"/>
 <trip depart="0" from="30098518" id="t16" to="-328253310#1" type="taxi"/>
 <trip depart="0" from="-233220919" id="t17" to="-61367455" type="taxi"/>
 <trip depart="0" from="-75567703#0" id="t18" to="5234741" type="taxi"/>
 <trip depart="0" from="148927038" id="t19" to="-136721671" type="taxi"/>
 <trip depart="0" from="28717819#0" id="t20" to="-362993459" type="taxi"/>
 <trip depart="0" from="29508075#2" id="t21" to="-61565232#0" type="taxi"/>
 <trip depart="0" from="136721667" id="t22" to="-62789947#0" type="taxi"/>
 <trip depart="0" from="24477199" id="t23" to="5234573#0" type="taxi"/>
 <trip depart="0" from="-224710093#0" id="t24" to="-45578880" type="taxi"/>
 <trip depart="0" from="30001659" id="t25" to="-75565714" type="taxi"/>
 <trip depart="0" from="78343358#1" id="t26" to="-28912204" type="taxi"/>
 <trip depart="0" from="25600863" id="t27" to="86714180#1" type="taxi"/>
 <trip depart="0" from="42928295" id="t28" to="290255303#0" type="taxi"/>
 <trip depart="0" from="118864079#3" id="t29" to="126449231#0" type="taxi"/>
 <trip depart="0" from="26187880#0" id="t30" to="144246396#1" type="taxi"/>
 <trip depart="0" from="-339760503" id="t31" to="44503435" type="taxi"/>
 <trip depart="0" from="28912317#3" id="t32" to="38336405#1" type="taxi"/>
 <trip depart="0" from="-233220919" id="t33" to="-237367748#2" type="taxi"/>
 <trip depart="0" from="33826296#0" id="t34" to="-42792917#1" type="taxi"/>
 <trip depart="0" from="26187879" id="t35" to="-212694591" type="taxi"/>
 <trip depart="0" from="-118155453" id="t36" to="1080293510" type="taxi"/>
 <trip depart="0" from="62789947#1" id="t37" to="-125351107" type="taxi"/>
 <trip depart="0" from="-233220919" id="t38" to="331361889" type="taxi"/>
 <trip depart="0" from="61367449#1" id="t39" to="-147136167" type="taxi"/>
 <trip depart="0" from="-118869284#1" id="t40" to="-61495638" type="taxi"/>
 <trip depart="0" from="-234540368" id="t41" to="103302381" type="taxi"/>
 <trip depart="0" from="34776006" id="t42" to="-362993459" type="taxi"/>
 <trip depart="0" from="83488895#1" id="t43" to="-62057537" type="taxi"/>
 <trip depart="0" from="-4353778#1" id="t44" to="5234741" type="taxi"/>
 <trip depart="0" from="62057884#2" id="t45" to="-117643614#0" type="taxi"/>
 <trip depart="0" from="707213264" id="t46" to="122529099" type="taxi"/>
 <trip depart="0" from="-63116648#0" id="t47" to="-14573382#0" type="taxi"/>
 <trip depart="0" from="34149613" id="t48" to="-121411748#1" type="taxi"/>
 <trip depart="0" from="25976329#1" id="t49" to="61984349#1" type="taxi"/>
 <trip depart="0" from="219528063" id="t50" to="26959968#3" type="taxi"/>
 <trip depart="0" from="-19850958#0" id="t51" to="-136864084#2" type="taxi"/>
 <trip depart="0" from="234088653#2" id="t52" to="707213248" type="taxi"/>
 <trip depart="0" from="-24031456#3" id="t53" to="-224710092" type="taxi"/>
 <trip depart="0" from="83163133" id="t54" to="-339760503" type="taxi"/>
 <trip depart="0" from="58507979#0" id="t55" to="-5095178#1" type="taxi"/>
 <trip depart="0" from="-136721671" id="t56" to="117099156#1" type="taxi"/>
 <trip depart="0" from="-84656708" id="t57" to="-84017999#0" type="taxi"/>
 <trip depart="0" from="62059875#1" id="t58" to="-324741543" type="taxi"/>
 <trip depart="0" from="328253310#1" id="t59" to="84656707#1" type="taxi"/>
 <trip depart="0" from="-117656063#0" id="t60" to="-84017999#0" type="taxi"/>
 <trip depart="0" from="-122529101" id="t61" to="44503435" type="taxi"/>
 <trip depart="0" from="-62106322#0" id="t62" to="-211120148" type="taxi"/>
 <trip depart="0" from="-211120148" id="t63" to="4680624#0" type="taxi"/>
 <trip depart="0" from="125351183" id="t64" to="-84017983" type="taxi"/>
 <trip depart="0" from="-300981184#0" id="t65" to="61566223" type="taxi"/>
 <trip depart="0" from="-63322106#0" id="t66" to="-125351107" type="taxi"/>
 <trip depart="0" from="29498972#0" id="t67" to="-208585109#0" type="taxi"/>
 <trip depart="0" from="-32461045#3" id="t68" to="-116049439#1" type="taxi"/>
 <trip depart="0" from="76737569" id="t69" to="-34149612#0" type="taxi"/>
 <trip depart="0" from="116049444#0" id="t70" to="-116049439#1" type="taxi"/>
 <trip depart="0" from="-63116648#0" id="t71" to="-4680624#1" type="taxi"/>
 <trip depart="0" from="-116049444#1" id="t72" to="-63116648#0" type="taxi"/>
 <trip depart="0" from="-61568101#0" id="t73" to="117624637#1" type="taxi"/>
 <trip depart="0" from="38674850" id="t74" to="61566223" type="taxi"/>
 <trip depart="0" from="-33826299" id="t75" to="44503435" type="taxi"/>
 <trip depart="0" from="-31465531#1" id="t76" to="-330415869" type="taxi"/>
 <trip depart="0" from="86527638#1" id="t77" to="890973612" type="taxi"/>
 <trip depart="0" from="222307221#1" id="t78" to="24821927#1" type="taxi"/>
 <trip depart="0" from="-122529099" id="t79" to="38674840" type="taxi"/>
 <trip depart="0" from="125351183" id="t80" to="-32461045#3" type="taxi"/>
 <trip depart="0" from="362993459" id="t81" to="-117649868" type="taxi"/>
 <trip depart="0" from="4353778#0" id="t82" to="183247520" type="taxi"/>
 <trip depart="0" from="-26040356#1" id="t83" to="-59683236#1" type="taxi"/>
 <trip depart="0" from="-84656707#0" id="t84" to="84018022#1" type="taxi"/>
 <trip depart="0" from="286342117" id="t85" to="462046218" type="taxi"/>
 <trip depart="0" from="1080293510" id="t86" to="-10426171#1" type="taxi"/>
 <trip depart="0" from="-61367419#1" id="t87" to="-28918381#1" type="taxi"/>
 <trip depart="0" from="26959968#3" id="t88" to="-61523337" type="taxi"/>
 <trip depart="0" from="-122529096#6" id="t89" to="892250218" type="taxi"/>
 <trip depart="0" from="-117656063#0" id="t90" to="30098516" type="taxi"/>
 <trip depart="0" from="4226192#2" id="t91" to="118864079#5" type="taxi"/>
 <trip depart="0" from="-118864084" id="t92" to="-42792917#1" type="taxi"/>
 <trip depart="0" from="1080293510" id="t93" to="87525116" type="taxi"/>
 <trip depart="0" from="15242125" id="t94" to="61367434" type="taxi"/>
 <trip depart="0" from="29498972#0" id="t95" to="-345608031" type="taxi"/>
 <trip depart="0" from="-117099133" id="t96" to="188956290" type="taxi"/>
 <trip depart="0" from="29712025#2" id="t97" to="5234274" type="taxi"/>
 <trip depart="0" from="-237386917#1" id="t98" to="29712025#2" type="taxi"/>
 <trip depart="0" from="-212694591" id="t99" to="-161176858" type="taxi"/>
 <trip depart="0" from="122529098#0" id="t100" to="202342090#1" type="taxi"/>
 <trip depart="0" from="122529094#3" id="t101" to="-4643592" type="taxi"/>
 <trip depart="0" from="-117643614#0" id="t102" to="8141209" type="taxi"/>
 <trip depart="0" from="-63322102#1" id="t103" to="1080298604" type="taxi"/>
 <trip depart="0" from="-24031456#3" id="t104" to="83488895#1" type="taxi"/>
 <trip depart="0" from="-26037066" id="t105" to="-122529101" type="taxi"/>
 <trip depart="0" from="29509219#0" id="t106" to="-852319713#2" type="taxi"/>
 <trip depart="0" from="-5095173" id="t107" to="4728026" type="taxi"/>
 <trip depart="0" from="-125351107" id="t108" to="-26037066" type="taxi"/>
 <trip depart="0" from="-136864084#2" id="t109" to="159761035" type="taxi"/>
 <trip depart="0" from="-118155460" id="t110" to="300981184#1" type="taxi"/>
 <trip depart="0" from="349902606#0" id="t111" to="-188890214" type="taxi"/>
 <trip depart="0" from="-122529096#3" id="t112" to="-122529096#5" type="taxi"/>
 <trip depart="0" from="-5234378" id="t113" to="95799445" type="taxi"/>
 <trip depart="0" from="-24031456#3" id="t114" to="-24399330#1" type="taxi"/>
 <trip depart="0" from="24398203#1" id="t115" to="-38336405#3" type="taxi"/>
 <trip depart="0" from="-4643592" id="t116" to="-122529094#10" type="taxi"/>
 <trip depart="0" from="-314405014" id="t117" to="126449315#0" type="taxi"/>
 <trip depart="0" from="-210457775#0" id="t118" to="84744384#1" type="taxi"/>
 <trip depart="0" from="-233220919" id="t119" to="-63322106#0" type="taxi"/>
 <trip depart="0" from="314250821" id="t120" to="10559201" type="taxi"/>
 <trip depart="0" from="-14573382#2" id="t121" to="-61367408#1" type="taxi"/>
 <trip depart="0" from="-10425852" id="t122" to="-138350780#1" type="taxi"/>
 <trip depart="0" from="-35772871" id="t123" to="211199291" type="taxi"/>
 <trip depart="0" from="-122529099" id="t124" to="-45180352" type="taxi"/>
 <trip depart="0" from="-24429416" id="t125" to="4238014" type="taxi"/>
 <trip depart="0" from="-61367432" id="t126" to="-26165752#1" type="taxi"/>
 <trip depart="0" from="-137388192#1" id="t127" to="-38281520#1" type="taxi"/>
 <trip depart="0" from="-61367454#0" id="t128" to="74371437" type="taxi"/>
 <trip depart="0" from="4492785#0" id="t129" to="-301127378" type="taxi"/>
 <trip depart="0" from="-19850958#0" id="t130" to="30529010#1" type="taxi"/>
 <trip depart="0" from="83179014" id="t131" to="222307221#0" type="taxi"/>
 <trip depart="0" from="-125351110" id="t132" to="118155452#1" type="taxi"/>
 <trip depart="0" from="61497943#1" id="t133" to="4250371" type="taxi"/>
 <trip depart="0" from="159761034" id="t134" to="-137388192#0" type="taxi"/>
 <trip depart="0" from="-84656435#0" id="t135" to="-328266345" type="taxi"/>
 <trip depart="0" from="-61367419#1" id="t136" to="-84656435#0" type="taxi"/>
 <trip depart="0" from="-349896686" id="t137" to="852319716" type="taxi"/>
 <trip depart="0" from="132047189" id="t138" to="85562446#1" type="taxi"/>
 <trip depart="0" from="-10425858" id="t139" to="56253839" type="taxi"/>
 <trip depart="0" from="101521562" id="t140" to="126140573#0" type="taxi"/>
 <trip depart="0" from="83163132" id="t141" to="-117656063#0" type="taxi"/>
 <trip depart="0" from="83633194" id="t142" to="25976329#1" type="taxi"/>
 <trip depart="0" from="-122529098#1" id="t143" to="-128504972" type="taxi"/>
 <trip depart="0" from="-188890214" id="t144" to="-122529094#8" type="taxi"/>
 <trip depart="0" from="-118155450" id="t145" to="-306713165" type="taxi"/>
 <trip depart="0" from="98236882#1" id="t146" to="-84017998" type="taxi"/>
 <trip depart="0" from="-10426204#0" id="t147" to="668611390#0" type="taxi"/>
 <trip depart="0" from="-79690674#0" id="t148" to="-117654815#3" type="taxi"/>
 <trip depart="0" from="-117099133" id="t149" to="-10372461" type="taxi"/>
 <trip depart="0" from="-38281640#0" id="t150" to="76737569" type="taxi"/>
 <trip depart="0" from="87525116" id="t151" to="890973612" type="taxi"/>
 <trip depart="0" from="-4341507#0" id="t152" to="154150880#1" type="taxi"/>
 <trip depart="0" from="237368115" id="t153" to="4361529#0" type="taxi"/>
 <trip depart="0" from="121411748#1" id="t154" to="73225130#1" type="taxi"/>
 <trip depart="0" from="-4244482#1" id="t155" to="232177529#0" type="taxi"/>
 <trip depart="0" from="-283762346" id="t156" to="30326560" type="taxi"/>
 <trip depart="0" from="-94194722" id="t157" to="125828734" type="taxi"/>
 <trip depart="0" from="-233171094#0" id="t158" to="-63322102#1" type="taxi"/>
 <trip depart="0" from="-10425858" id="t159" to="38325502#1" type="taxi"/>
 <trip depart="0" from="-122529094#10" id="t160" to="-4680624#1" type="taxi"/>
 <trip depart="0" from="97097111#1" id="t161" to="462046218" type="taxi"/>
 <trip depart="0" from="25767798#1" id="t162" to="211199291" type="taxi"/>
 <trip depart="0" from="-74011129#0" id="t163" to="-61565968" type="taxi"/>
 <trip depart="0" from="86714180#1" id="t164" to="-345608031" type="taxi"/>
 <trip depart="0" from="-4680624#1" id="t165" to="122529094#2" type="taxi"/>
 <trip depart="0" from="1080293510" id="t166" to="5241367" type="taxi"/>
 <trip depart="0" from="30016020#0" id="t167" to="14571550#1" type="taxi"/>
 <trip depart="0" from="-61543316#1" id="t168" to="61367419#1" type="taxi"/>
 <trip depart="0" from="14571549" id="t169" to="4244653" type="taxi"/>
 <trip depart="0" from="-63322102#1" id="t170" to="-96809695#2" type="taxi"/>
 <trip depart="0" from="95916459" id="t171" to="26040355#1" type="taxi"/>
 <trip depart="0" from="-4353778#1" id="t172" to="-117649887" type="taxi"/>
 <trip depart="0" from="-121411749#0" id="t173" to="-42792917#2" type="taxi"/>
 <trip depart="0" from="61367419#1" id="t174" to="-61495638" type="taxi"/>
 <trip depart="0" from="-61367449#0" id="t175" to="369150317#1" type="taxi"/>
 <trip depart="0" from="166533654#1" id="t176" to="-62106186#0" type="taxi"/>
 <trip depart="0" from="26187880#0" id="t177" to="132817964" type="taxi"/>
 <trip depart="0" from="-328253310#1" id="t178" to="-75567703#1" type="taxi"/>
 <trip depart="0" from="-122529101" id="t179" to="-61367459" type="taxi"/>
 <trip depart="0" from="-10426204#1" id="t180" to="-22914198" type="taxi"/>
 <trip depart="0" from="116049444#0" id="t181" to="-57726375#1" type="taxi"/>
 <trip depart="0" from="-116049439#0" id="t182" to="-79690674#0" type="taxi"/>
 <trip depart="0" from="8102367" id="t183" to="-117643622" type="taxi"/>
 <trip depart="0" from="234540367" id="t184" to="-28918381#0" type="taxi"/>
 <trip depart="0" from="58507979#0" id="t185" to="-5230785" type="taxi"/>
 <trip depart="0" from="-38336405#0" id="t186" to="125351183" type="taxi"/>
 <trip depart="0" from="76346323" id="t187" to="118864079#4" type="taxi"/>
 <trip depart="0" from="-15242128#0" id="t188" to="62065945#1" type="taxi"/>
 <trip depart="0" from="-26037066" id="t189" to="-26085515#0" type="taxi"/>
 <trip depart="0" from="-335084841#0" id="t190" to="30140137#0" type="taxi"/>
 <trip depart="0" from="126449315#0" id="t191" to="-34776023#0" type="taxi"/>
 <trip depart="0" from="84656705" id="t192" to="-4353778#2" type="taxi"/>
 <trip depart="0" from="126709272#2" id="t193" to="890973612" type="taxi"/>
 <trip depart="0" from="-136721664" id="t194" to="5095206" type="taxi"/>
 <trip depart="0" from="-10502291#1" id="t195" to="-117623507" type="taxi"/>
 <trip depart="0" from="-626942404#0" id="t196" to="624417041" type="taxi"/>
 <trip depart="0" from="136867909" id="t197" to="-208585109#0" type="taxi"/>
 <trip depart="0" from="125351183" id="t198" to="-212694591" type="taxi"/>
 <trip depart="0" from="-300981184#0" id="t199" to="122529094#4" type="taxi"/>
 <trip depart="0" from="86527638#1" id="t200" to="-224710092" type="taxi"/>
 <trip depart="0" from="118864085" id="t201" to="290255303#0" type="taxi"/>
 <trip depart="0" from="30015227" id="t202" to="314252689" type="taxi"/>
 <trip depart="0" from="-4361947" id="t203" to="-26127182#2" type="taxi"/>
 <trip depart="0" from="-328266345" id="t204" to="-369180511#0" type="taxi"/>
 <trip depart="0" from="-30471451" id="t205" to="183247520" type="taxi"/>
 <trip depart="0" from="51340803#1" id="t206" to="121411753#0" type="taxi"/>
 <trip depart="0" from="-79690674#0" id="t207" to="-210457775#0" type="taxi"/>
 <trip depart="0" from="28717819#0" id="t208" to="-122529094#9" type="taxi"/>
 <trip depart="0" from="188956290" id="t209" to="-345608032#0" type="taxi"/>
 <trip depart="0" from="237368115" id="t210" to="83488895#1" type="taxi"/>
 <trip depart="0" from="121411753#0" id="t211" to="53682403#2" type="taxi"/>
 <trip depart="0" from="62057889" id="t212" to="-122529098#1" type="taxi"/>
 <trip depart="0" from="-137388192#1" id="t213" to="8102482" type="taxi"/>
 <trip depart="0" from="-51722317" id="t214" to="-211199290#1" type="taxi"/>
 <trip depart="0" from="118864079#4" id="t215" to="5234741" type="taxi"/>
 <trip depart="0" from="-117656067#0" id="t216" to="-122529094#8" type="taxi"/>
 <trip depart="0" from="117654815#0" id="t217" to="84656707#1" type="taxi"/>
 <trip depart="0" from="-116049442" id="t218" to="26369585" type="taxi"/>
 <trip depart="0" from="-83510232#0" id="t219" to="1006265805#3" type="taxi"/>
 <trip depart="0" from="611245994" id="t220" to="-77606148#0" type="taxi"/>
 <trip depart="0" from="62115256" id="t221" to="118864084" type="taxi"/>
 <trip depart="0" from="191374712#1" id="t222" to="96915239#1" type="taxi"/>
 <trip depart="0" from="-117656063#0" id="t223" to="-345608032#0" type="taxi"/>
 <trip depart="0" from="-4233644#2" id="t224" to="-10372461" type="taxi"/>
 <trip depart="0" from="-10426021#1" id="t225" to="-121411754" type="taxi"/>
 <trip depart="0" from="-122529096#7" id="t226" to="26187880#0" type="taxi"/>
 <trip depart="0" from="116049444#0" id="t227" to="607800583" type="taxi"/>
 <trip depart="0" from="38674839" id="t228" to="142497095" type="taxi"/>
 <trip depart="0" from="15242129#1" id="t229" to="-5234757#0" type="taxi"/>
 <trip depart="0" from="35062429#3" id="t230" to="-79690674#0" type="taxi"/>
 <trip depart="0" from="310738357" id="t231" to="217696286#1" type="taxi"/>
 <trip depart="0" from="-83488866" id="t232" to="-44503434#0" type="taxi"/>
 <trip depart="0" from="32461045#3" id="t233" to="4244653" type="taxi"/>
 <trip depart="0" from="159761035" id="t234" to="624417041" type="taxi"/>
 <trip depart="0" from="-62789947#1" id="t235" to="-101521565" type="taxi"/>
 <trip depart="0" from="-28918381#1" id="t236" to="8102366#0" type="taxi"/>
 <trip depart="0" from="206172956" id="t237" to="4250372" type="taxi"/>
 <trip depart="0" from="-63116648#0" id="t238" to="122529096#8" type="taxi"/>
 <trip depart="0" from="-5234378" id="t239" to="24821927#1" type="taxi"/>
 <trip depart="0" from="-123037083" id="t240" to="-84018033" type="taxi"/>
 <trip depart="0" from="-26165752#0" id="t241" to="30528972#0" type="taxi"/>
 <trip depart="0" from="283762346" id="t242" to="-101486395" type="taxi"/>
 <trip depart="0" from="-125589533" id="t243" to="-162352616" type="taxi"/>
 <trip depart="0" from="-125351107" id="t244" to="117654826" type="taxi"/>
 <trip depart="0" from="126449221#0" id="t245" to="-116049439#1" type="taxi"/>
 <trip depart="0" from="25976329#1" id="t246" to="-4680624#0" type="taxi"/>
 <trip depart="0" from="-4232328" id="t247" to="58097863" type="taxi"/>
 <trip depart="0" from="300981184#1" id="t248" to="-62106322#0" type="taxi"/>
 <trip depart="0" from="-62115260" id="t249" to="-38336405#0" type="taxi"/>
 <trip depart="0" from="217696286#1" id="t250" to="136864086" type="taxi"/>
 <trip depart="0" from="62789947#1" id="t251" to="-237386917#1" type="taxi"/>
 <trip depart="0" from="-63322106#0" id="t252" to="-35772871" type="taxi"/>
 <trip depart="0" from="-61997814#0" id="t253" to="29509219#0" type="taxi"/>
 <trip depart="0" from="-125589533" id="t254" to="4643592" type="taxi"/>
 <trip depart="0" from="122529114#1" id="t255" to="-136864084#0" type="taxi"/>
 <trip depart="0" from="-118869287" id="t256" to="-32461045#3" type="taxi"/>
 <trip depart="0" from="-122529094#10" id="t257" to="217695968#1" type="taxi"/>
 <trip depart="0" from="-122529094#9" id="t258" to="83163097#1" type="taxi"/>
 <trip depart="0" from="-137388192#1" id="t259" to="24031456#3" type="taxi"/>
 <trip depart="0" from="-16345605#1" id="t260" to="4244655" type="taxi"/>
 <trip depart="0" from="-136721667" id="t261" to="-4643592" type="taxi"/>
 <trip depart="0" from="219528063" id="t262" to="-84017998" type="taxi"/>
 <trip depart="0" from="-63134322#1" id="t263" to="-15242128#0" type="taxi"/>
 <trip depart="0" from="-8141209" id="t264" to="-23960853#0" type="taxi"/>
 <trip depart="0" from="217696286#1" id="t265" to="63322102#1" type="taxi"/>
 <trip depart="0" from="39290133" id="t266" to="-26037066" type="taxi"/>
 <trip depart="0" from="-116049442" id="t267" to="-57726375#2" type="taxi"/>
 <trip depart="0" from="43263108" id="t268" to="-10426173" type="taxi"/>
 <trip depart="0" from="122529094#4" id="t269" to="57726376" type="taxi"/>
 <trip depart="0" from="118864085" id="t270" to="24477199" type="taxi"/>
 <trip depart="0" from="886764278" id="t271" to="-335084841#1" type="taxi"/>
 <trip depart="0" from="62789947#1" id="t272" to="-5095213" type="taxi"/>
 <trip depart="0" from="-117623505" id="t273" to="56253839" type="taxi"/>
 <trip depart="0" from="166533654#1" id="t274" to="62057889" type="taxi"/>
 <trip depart="0" from="-63116648#1" id="t275" to="-335084841#0" type="taxi"/>
 <trip depart="0" from="-208548182" id="t276" to="-117654815#3" type="taxi"/>
 <trip depart="0" from="10559035" id="t277" to="-78535771" type="taxi"/>
 <trip depart="0" from="-116049439#0" id="t278" to="132817971" type="taxi"/>
 <trip depart="0" from="83187094" id="t279" to="-61543316#1" type="taxi"/>
 <trip depart="0" from="-35606385#0" id="t280" to="-117649868" type="taxi"/>
 <trip depart="0" from="-117099159#5" id="t281" to="-34776024" type="taxi"/>
 <trip depart="0" from="-16345605#0" id="t282" to="-38281640#0" type="taxi"/>
 <trip depart="0" from="159761034" id="t283" to="118864079#3" type="taxi"/>
 <trip depart="0" from="61367419#1" id="t284" to="4728026" type="taxi"/>
 <trip depart="0" from="26187880#1" id="t285" to="-61568101#0" type="taxi"/>
 <trip depart="0" from="32461045#3" id="t286" to="96915239#1" type="taxi"/>
 <trip depart="0" from="-101521569#0" id="t287" to="-34777320" type="taxi"/>
 <trip depart="0" from="14571550#1" id="t288" to="118864079#3" type="taxi"/>
 <trip depart="0" from="-122529102#3" id="t289" to="-34776024" type="taxi"/>
 <trip depart="0" from="30471452#0" id="t290" to="314250821" type="taxi"/>
 <trip depart="0" from="-5234573#0" id="t291" to="365580162" type="taxi"/>
 <trip depart="0" from="-26165754#1" id="t292" to="-138350780#1" type="taxi"/>
 <trip depart="0" from="-169313833#2" id="t293" to="126449315#0" type="taxi"/>
 <trip depart="0" from="30257059#1" id="t294" to="-4233645#0" type="taxi"/>
 <trip depart="0" from="-61281939#0" id="t295" to="-208585109#0" type="taxi"/>
 <trip depart="0" from="-84017998" id="t296" to="-345608032#0" type="taxi"/>
 <trip depart="0" from="121411753#0" id="t297" to="4361529#0" type="taxi"/>
 <trip depart="0" from="-122529094#5" id="t298" to="-116049443#3" type="taxi"/>
 <trip depart="0" from="-191374712#0" id="t299" to="-83488866" type="taxi"/>
 <trip depart="0" from="121411748#1" id="t300" to="-59683236#1" type="taxi"/>
 <trip depart="0" from="-212694590" id="t301" to="30326560" type="taxi"/>
 <trip depart="0" from="-57726375#2" id="t302" to="122529102#2" type="taxi"/>
 <trip depart="0" from="98236882#1" id="t303" to="-61495638" type="taxi"/>
 <trip depart="0" from="-122529101" id="t304" to="-85562446#0" type="taxi"/>
 <trip depart="0" from="232177529#1" id="t305" to="-17265677" type="taxi"/>
 <trip depart="0" from="1080293510" id="t306" to="71360393" type="taxi"/>
 <trip depart="0" from="56253838" id="t307" to="-84656435#0" type="taxi"/>
 <trip depart="0" from="-101520672" id="t308" to="30015227" type="taxi"/>
 <trip depart="0" from="126449315#0" id="t309" to="84656705" type="taxi"/>
 <trip depart="0" from="-136721677#1" id="t310" to="-38336405#3" type="taxi"/>
 <trip depart="0" from="22982190" id="t311" to="-85562446#0" type="taxi"/>
 <trip depart="0" from="-101521569#0" id="t312" to="25976329#1" type="taxi"/>
 <trip depart="0" from="43263108" id="t313" to="-4353778#3" type="taxi"/>
 <trip depart="0" from="-290255303#2" id="t314" to="101521562" type="taxi"/>
 <trip depart="0" from="-28918381#1" id="t315" to="10558792" type="taxi"/>
 <trip depart="0" from="118869284#1" id="t316" to="122529096#8" type="taxi"/>
 <trip depart="0" from="154150880#1" id="t317" to="-61367455" type="taxi"/>
 <trip depart="0" from="56253839" id="t318" to="-94194722" type="taxi"/>
 <trip depart="0" from="78049389" id="t319" to="137996244#1" type="taxi"/>
 <trip depart="0" from="4229427#2" id="t320" to="-211199290#1" type="taxi"/>
 <trip depart="0" from="154150880#1" id="t321" to="-211199290#1" type="taxi"/>
 <trip depart="0" from="33826296#0" id="t322" to="84656435#1" type="taxi"/>
 <trip depart="0" from="-81646465#1" id="t323" to="-84018033" type="taxi"/>
 <trip depart="0" from="38674840" id="t324" to="-17265677" type="taxi"/>
 <trip depart="0" from="-53357944" id="t325" to="-42792917#2" type="taxi"/>
 <trip depart="0" from="-103302383#2" id="t326" to="-371261963#0" type="taxi"/>
 <trip depart="0" from="5234741" id="t327" to="93670626" type="taxi"/>
 <trip depart="0" from="24031456#6" id="t328" to="-24399330#0" type="taxi"/>
 <trip depart="0" from="-122529094#9" id="t329" to="283762346" type="taxi"/>
 <trip depart="0" from="5095178#1" id="t330" to="126449309" type="taxi"/>
 <trip depart="0" from="126709272#2" id="t331" to="30528972#0" type="taxi"/>
 <trip depart="0" from="219528063" id="t332" to="85562446#1" type="taxi"/>
 <trip depart="0" from="132852432" id="t333" to="84744387#1" type="taxi"/>
 <trip depart="0" from="-191374712#0" id="t334" to="-210457775#1" type="taxi"/>
 <trip depart="0" from="-335084841#1" id="t335" to="310738357" type="taxi"/>
 <trip depart="0" from="10557712" id="t336" to="116049443#2" type="taxi"/>
 <trip depart="0" from="25600863" id="t337" to="-4353778#3" type="taxi"/>
 <trip depart="0" from="-121411749#0" id="t338" to="-116049442" type="taxi"/>
 <trip depart="0" from="30141563" id="t339" to="132817973#0" type="taxi"/>
 <trip depart="0" from="126449231#0" id="t340" to="-45578880" type="taxi"/>
 <trip depart="0" from="62059875#2" id="t341" to="25976329#1" type="taxi"/>
 <trip depart="0" from="-328253310#1" id="t342" to="24031456#6" type="taxi"/>
 <trip depart="0" from="1080293510" id="t343" to="-117099159#5" type="taxi"/>
 <trip depart="0" from="-35605874#1" id="t344" to="-75567703#1" type="taxi"/>
 <trip depart="0" from="95916459" id="t345" to="26040355#1" type="taxi"/>
 <trip depart="0" from="290255301" id="t346" to="38325502#0" type="taxi"/>
 <trip depart="0" from="-27404368#1" id="t347" to="-118869284#1" type="taxi"/>
 <trip depart="0" from="58423646" id="t348" to="4361529#1" type="taxi"/>
 <trip depart="0" from="-210457775#1" id="t349" to="93670633#1" type="taxi"/>
 <trip depart="0" from="-349909771" id="t350" to="-283762346" type="taxi"/>
 <trip depart="0" from="-26127182#1" id="t351" to="4244655" type="taxi"/>
 <trip depart="0" from="4361529#0" id="t352" to="240100844#1" type="taxi"/>
 <trip depart="0" from="208548184#1" id="t353" to="-14573382#2" type="taxi"/>
 <trip depart="0" from="-234540368" id="t354" to="-4680624#1" type="taxi"/>
 <trip depart="0" from="-61367455" id="t355" to="84744387#1" type="taxi"/>
 <trip depart="0" from="96915239#1" id="t356" to="93670626" type="taxi"/>
 <trip depart="0" from="-118155450" id="t357" to="15242128#1" type="taxi"/>
 <trip depart="0" from="4250371" id="t358" to="26187879" type="taxi"/>
 <person depart="1.0" id="p0">
  <ride from="321098632#1" lines="taxi" parkingArea="pa126140573#0" to="126140573#0"/>
 </person>
 <person depart="18.0" id="p1">
  <ride from="-63134322#1" lines="taxi" parkingArea="pa-51722317" to="-51722317"/>
 </person>
 <trip depart="23.0" departLane="best" departSpeed="max" from="-122529098#1" id="rs_c000_i000_277" to="4353778#0"/>
 <person depart="24.0" id="p2">
  <ride from="-117643614#1" lines="taxi" parkingArea="pa-117643614#0" to="-117643614#0"/>
 </person>
 <person depart="26.0" id="p3">
  <ride from="43263108" lines="taxi" parkingArea="pa-61367459" to="-61367459"/>
 </person>
 <trip depart="27.0" departLane="best" departSpeed="max" from="-74011129#0" id="rs_c000_i001_35" to="-63322106#0"/>
 <person depart="38.0" id="p4">
  <ride from="-62106322#0" lines="taxi" parkingArea="pa-62106186#0" to="-62106186#0"/>
 </person>
 <person depart="47.0" id="p5">
  <ride from="-136721671" lines="taxi" parkingArea="pa-132047178" to="-132047178"/>
 </person>
 <person depart="51.0" id="p6">
  <ride from="51340803#1" lines="taxi" parkingArea="pa166533651" to="166533651"/>
 </person>
 <person depart="58.0" id="p7">
  <ride from="-324738924" lines="taxi" parkingArea="pa76346323" to="76346323"/>
 </person>
 <trip depart="67.0" departLane="best" departSpeed="max" from="-84017983" id="rs_c000_i001_97" to="-84656707#0"/>
 <person depart="75.0" id="p8">
  <ride from="-237367748#2" lines="taxi" parkingArea="pa4237991" to="4237991"/>
 </person>
 <trip depart="76.0" departLane="best" departSpeed="max" from="26040294#1" id="rs_c000_i000_880" to="26040294#2"/>
 <person depart="80.0" id="p9">
  <ride from="96915239#1" lines="taxi" parkingArea="pa213132380" to="213132380"/>
 </person>
 <person depart="82.0" id="p10">
  <ride from="-5234278#1" lines="taxi" parkingArea="pa202342090#1" to="202342090#1"/>
 </person>
 <trip depart="84.0" departLane="best" departSpeed="max" from="-117654815#3" id="rs_c000_i001_120" to="-117654815#2"/>
 <trip depart="86.0" departLane="best" departSpeed="max" from="301503168#1" id="rs_c001_i000_69" to="24544213"/>
 <trip depart="86.0" departLane="best" departSpeed="max" from="-30141086#0" id="rs_c001_i000_186" to="29712025#0"/>
 <trip depart="93.0" departLane="best" departSpeed="max" from="4643592" id="rs_c000_i001_133" to="-4643592"/>
 <trip depart="98.0" departLane="best" departSpeed="max" from="-5234464" id="rs_c000_i000_1131" to="-30141086#0"/>