<?xml version="1.0" encoding="UTF-8"?>
<!-- generated on 2023-12-04 16:25:58.447433 by randomTrips.py v1_13_0+0000-4b5bca80615
<configuration>
    <end value="1500"/>
    <fringe-factor value="5.0"/>
    <min-distance value="2500.0"/>
    <net-file value="C:\Users\bochenin\RL project\materials\ridesharing\toy example\MySUMOfile.net.xml"/>
    <period value="30.0"/>
    <route-file value="C:\Users\bochenin\RL project\materials\ridesharing\toy example\MySUMOfile.rou.xml"/>
    <trip-attributes value="departLane=&quot;best&quot; departSpeed=&quot;max&quot; departPos=&quot;random&quot;"/>
    <output-trip-file value="C:\Users\bochenin\RL project\materials\ridesharing\toy example\MySUMOfile.trips.xml"/>
</configuration>

-->
<routes xmlns:xsi="http://www.w3.org/2001/XMLSchema-instance" xsi:noNamespaceSchemaLocation="http://sumo.dlr.de/xsd/routes_file.xsd">
    <trip id="0" depart="0.00" from="-24650" to="-23790" departLane="best" departSpeed="max" departPos="random"/>
    <trip id="1" depart="30.00" from="20598" to="23440" departLane="best" departSpeed="max" departPos="random"/>
    <trip id="2" depart="60.00" from="-22265" to="14116" departLane="best" departSpeed="max" departPos="random"/>
    <trip id="3" depart="90.00" from="-11628" to="-22314" departLane="best" departSpeed="max" departPos="random"/>
    <trip id="4" depart="120.00" from="24898" to="-10305" departLane="best" departSpeed="max" departPos="random"/>
    <trip id="5" depart="150.00" from="24622" to="2435" departLane="best" departSpeed="max" departPos="random"/>
    <trip id="6" depart="180.00" from="-27703" to="-19822" departLane="best" departSpeed="max" departPos="random"/>
    <trip id="7" depart="210.00" from="-8700" to="8744" departLane="best" departSpeed="max" departPos="random"/>
    <trip id="8" depart="240.00" from="-29575" to="16897" departLane="best" departSpeed="max" departPos="random"/>
    <trip id="9" depart="270.00" from="-22350" to="-28555" departLane="best" departSpeed="max" departPos="random"/>
    <trip id="10" depart="300.00" from="-1470" to="-24358" departLane="best" departSpeed="max" departPos="random"/>
    <trip id="11" depart="330.00" from="-16022" to="-27195" departLane="best" departSpeed="max" departPos="random"/>
    <trip id="12" depart="360.00" from="15154" to="19871" departLane="best" departSpeed="max" departPos="random"/>
    <trip id="13" depart="390.00" from="27101" to="27936" departLane="best" departSpeed="max" departPos="random"/>
    <trip id="14" depart="420.00" from="-22388" to="-12283" departLane="best" departSpeed="max" departPos="random"/>
    <trip id="15" depart="450.00" from="-21831" to="6889" departLane="best" departSpeed="max" departPos="random"/>
    <trip id="16" depart="480.00" from="30429" to="-30703" departLane="best" departSpeed="max" departPos="random"/>
    <trip id="17" depart="510.00" from="11449" to="4279" departLane="best" departSpeed="max" departPos="random"/>
    <trip id="18" depart="540.00" from="-30142" to="-23640" departLane="best" departSpeed="max" departPos="random"/>
    <trip id="19" depart="570.00" from="9888" to="14488" departLane="best" departSpeed="max" departPos="random"/>
    <trip id="20" depart="600.00" from="-13555" to="-6887" departLane="best" departSpeed="max" departPos="random"/>
    <trip id="21" depart="630.00" from="-10681" to="25184" departLane="best" departSpeed="max" departPos="random"/>
    <trip id="22" depart="660.00" from="-2438" to="21667" departLane="best" departSpeed="max" departPos="random"/>
    <trip id="23" depart="690.00" from="-16617" to="1000" departLane="best" departSpeed="max" departPos="random"/>
    <trip id="24" depart="720.00" from="30302" to="-25827" departLane="best" departSpeed="max" departPos="random"/>
    <trip id="25" depart="750.00" from="-25594" to="21656" departLane="best" departSpeed="max" departPos="random"/>
    <trip id="26" depart="780.00" from="12900" to="-19684" departLane="best" departSpeed="max" departPos="random"/>
    <trip id="27" depart="810.00" from="2343" to="15729" departLane="best" departSpeed="max" departPos="random"/>
    <trip id="28" depart="840.00" from="-13990" to="27080" departLane="best" departSpeed="max" departPos="random"/>
    <trip id="29" depart="870.00" from="22337" to="-18521" departLane="best" departSpeed="max" departPos="random"/>
    <trip id="30" depart="900.00" from="-21423" to="-30440" departLane="best" departSpeed="max" departPos="random"/>
    <trip id="31" depart="930.00" from="-14119" to="21018" departLane="best" departSpeed="max" departPos="random"/>
    <trip id="32" depart="960.00" from="28948" to="-14522" departLane="best" departSpeed="max" departPos="random"/>
    <trip id="33" depart="990.00" from="-21971" to="-18736" departLane="best" departSpeed="max" departPos="random"/>
    <trip id="34" depart="1020.00" from="-30873" to="12072" departLane="best" departSpeed="max" departPos="random"/>
    <trip id="35" depart="1050.00" from="20031" to="23304" departLane="best" departSpeed="max" departPos="random"/>
    <trip id="36" depart="1080.00" from="9136" to="-16329" departLane="best" departSpeed="max" departPos="random"/>
    <trip id="37" depart="1110.00" from="-30310" to="-4276" departLane="best" departSpeed="max" departPos="random"/>
    <trip id="38" depart="1140.00" from="-20635" to="10811" departLane="best" departSpeed="max" departPos="random"/>
    <trip id="39" depart="1170.00" from="-23747" to="5733" departLane="best" departSpeed="max" departPos="random"/>
    <trip id="40" depart="1200.00" from="9913" to="30306" departLane="best" departSpeed="max" departPos="random"/>
    <trip id="41" depart="1230.00" from="27702" to="-20197" departLane="best" departSpeed="max" departPos="random"/>
    <trip id="42" depart="1260.00" from="7710" to="9543" departLane="best" departSpeed="max" departPos="random"/>
    <trip id="43" depart="1290.00" from="-19129" to="-29182" departLane="best" departSpeed="max" departPos="random"/>
    <trip id="44" depart="1320.00" from="8533" to="18581" departLane="best" departSpeed="max" departPos="random"/>
    <trip id="45" depart="1350.00" from="-13225" to="18811" departLane="best" departSpeed="max" departPos="random"/>
    <trip id="46" depart="1380.00" from="-14732" to="-2169" departLane="best" departSpeed="max" departPos="random"/>
    <trip id="47" depart="1410.00" from="-30727" to="18804" departLane="best" departSpeed="max" departPos="random"/>
    <trip id="48" depart="1440.00" from="-7765" to="6333" departLane="best" departSpeed="max" departPos="random"/>
    <trip id="49" depart="1470.00" from="-26405" to="26522" departLane="best" departSpeed="max" departPos="random"/>
</routes>
