<?xml version="1.0" encoding="utf-8"?>
<routes>
 <trip depart="4.0" departLane="best" departSpeed="max" from="-38807023" id="rs_c000_i000_48" to="104147692"/>
 <trip depart="4.0" departLane="best" departSpeed="max" from="-26037066" id="rs_c000_i000_49" to="58423646"/>
 <trip depart="7.0" departLane="best" departSpeed="max" from="5231759" id="rs_c000_i000_81" to="29970080#0"/>
 <trip depart="13.0" departLane="best" departSpeed="max" from="-117654815#1" id="rs_c000_i000_148" to="25980639"/>
 <trip depart="17.0" departLane="best" departSpeed="max" from="-137996247" id="rs_c000_i000_194" to="58423646"/>
 <trip depart="18.0" departLane="best" departSpeed="max" from="-63134322#1" id="rs_c001_i000_31" to="117654824#0"/>
 <trip depart="23.0" departLane="best" departSpeed="max" from="-122529098#1" id="rs_c000_i000_277" to="26187757#1"/>
 <trip depart="26.0" departLane="best" departSpeed="max" from="43263108" id="rs_c001_i000_42" to="30471451"/>
 <trip depart="27.0" departLane="best" departSpeed="max" from="-74011129#0" id="rs_c000_i001_35" to="25980639"/>
 <trip depart="33.0" departLane="best" departSpeed="max" from="290255300" id="rs_c000_i000_384" to="58423646"/>
 <trip depart="34.0" departLane="best" departSpeed="max" from="1080298604" id="rs_c001_i000_68" to="234899446"/>
 <trip depart="38.0" departLane="best" departSpeed="max" from="-62106322#0" id="rs_c000_i001_5_part1" to="25980639"/>
 <trip depart="38.0" departLane="best" departSpeed="max" from="-5067354#1" id="rs_c000_i000_437" to="34760663"/>
 <trip depart="41.0" departLane="best" departSpeed="max" from="10557712" id="rs_c000_i000_475" to="1081179231"/>
 <trip depart="43.0" departLane="best" departSpeed="max" from="-10426204#1" id="rs_c001_i000_90" to="35062429#0"/>
 <trip depart="47.0" departLane="best" departSpeed="max" from="-136721671" id="rs_c000_i000_533" to="58423646"/>
 <trip depart="49.0" departLane="best" departSpeed="max" from="-286243203#1" id="rs_c000_i000_554" to="24405134"/>
 <trip depart="52.0" departLane="best" departSpeed="max" from="-118869284#1" id="rs_c000_i000_598" to="144246396#1"/>
 <trip depart="55.0" departLane="best" departSpeed="max" from="-61566225#0" id="rs_c000_i000_653" to="30471451"/>
 <trip depart="56.0" departLane="best" departSpeed="max" from="4273624" id="rs_c000_i000_657" to="1081179231"/>
 <trip depart="57.0" departLane="best" departSpeed="max" from="26369517" id="rs_c000_i001_73" to="234899446"/>
 <trip depart="57.0" departLane="best" departSpeed="max" from="61496433" id="rs_c000_i001_79" to="28230831"/>
 <trip depart="57.0" departLane="best" departSpeed="max" from="462046218" id="rs_c000_i000_673" to="38455846"/>
 <trip depart="57.0" departLane="best" departSpeed="max" from="24031456#4" id="rs_c000_i000_681" to="58423646"/>
 <trip depart="60.0" departLane="best" departSpeed="max" from="-15242127#1" id="rs_c000_i000_711" to="1081179231"/>
 <trip depart="67.0" departLane="best" departSpeed="max" from="51340803#1" id="rs_c000_i000_444" to="139124541#0"/>
 <trip depart="74.0" departLane="best" departSpeed="max" from="24487041" id="rs_c000_i000_865" to="-330920155"/>
 <trip depart="75.0" departLane="best" departSpeed="max" from="-328253309#0" id="rs_c000_i001_110" to="362987791#0"/>
 <trip depart="76.0" departLane="best" departSpeed="max" from="-211208696#0" id="rs_c000_i001_20" to="102332984#0"/>
 <trip depart="76.0" departLane="best" departSpeed="max" from="117099159#2" id="rs_c000_i000_885" to="58423646"/>
 <trip depart="77.0" departLane="best" departSpeed="max" from="4226192#2" id="rs_c001_i000_161" to="234899446"/>
 <trip depart="78.0" departLane="best" departSpeed="max" from="-96809683#1" id="rs_c000_i000_912" to="58423646"/>
 <trip depart="79.0" departLane="best" departSpeed="max" from="-211208696#0" id="rs_c000_i000_161" to="102332984#0"/>
 <trip depart="80.0" departLane="best" departSpeed="max" from="96915239#1" id="rs_c000_i000_928" to="58423646"/>
 <trip depart="81.0" departLane="best" departSpeed="max" from="51340803#1" id="rs_c000_i000_920" to="139124541#0"/>
 <trip depart="82.0" departLane="best" departSpeed="max" from="-5234278#1" id="rs_c000_i000_940" to="102332984#0"/>
 <trip depart="82.0" departLane="best" departSpeed="max" from="-136721672" id="rs_c000_i000_947" to="26187757#1"/>
 <trip depart="86.0" departLane="best" departSpeed="max" from="83163114#1" id="rs_c000_i000_990" to="39139679"/>
 <trip depart="92.0" departLane="best" departSpeed="max" from="-26127182#1" id="rs_c000_i000_1060" to="26187755#0"/>
 <trip depart="96.0" departLane="best" departSpeed="max" from="-14573382#2" id="rs_c001_i000_205" to="35062429#0"/>
 <trip depart="98.0" departLane="best" departSpeed="max" from="-83497364" id="rs_c000_i000_1132" to="1081179231"/>
 <trip depart="103.0" departLane="best" departSpeed="max" from="-4361529#0" id="rs_c001_i002_4" to="24428921"/>
 <trip depart="105.0" departLane="best" departSpeed="max" from="-211208696#0" id="rs_c001_i000_103" to="234899446"/>
 <trip depart="107.0" departLane="best" departSpeed="max" from="-34777320" id="rs_c000_i000_1213" to="26187757#1"/>
 <trip depart="107.0" departLane="best" departSpeed="max" from="83163097#1" id="rs_c001_i000_228" to="234899446"/>
 <trip depart="114.76" departLane="best" departSpeed="max" from="-30471451" id="rs_c000_i000_228_part1" to="60727164#1"/>
 <trip depart="121.0" departLane="best" departSpeed="max" from="26369585" id="rs_c000_i000_1361" to="102332984#0"/>
 <trip depart="122.0" departLane="best" departSpeed="max" from="42793238#0" id="rs_c000_i000_1376" to="117654824#0"/>
 <trip depart="124.0" departLane="best" departSpeed="max" from="310738357" id="rs_c001_i000_253" to="1081179231"/>
 <trip depart="125.0" departLane="best" departSpeed="max" from="5095190#0" id="rs_c000_i000_1423" to="34760663"/>
 <trip depart="126.0" departLane="best" departSpeed="max" from="-95937728#1" id="rs_c000_i000_508" to="144246396#1"/>
 <trip depart="127.0" departLane="best" departSpeed="max" from="136864086" id="rs_c000_i000_1442" to="58423646"/>
 <trip depart="128.0" departLane="best" departSpeed="max" from="-118155453" id="rs_c000_i001_193" to="58423646"/>
 <trip depart="129.0" departLane="best" departSpeed="max" from="-211120148" id="rs_c000_i001_179" to="35062429#0"/>
 <trip depart="133.0" departLane="best" departSpeed="max" from="-79690674#0" id="rs_c000_i002_6" to="34760663"/>
 <trip depart="134.0" departLane="best" departSpeed="max" from="-117099153" id="rs_c000_i000_1508" to="-117099159#0"/>
 <trip depart="136.0" departLane="best" departSpeed="max" from="10559201" id="rs_c000_i001_200" to="35062429#0"/>
 <trip depart="137.0" departLane="best" departSpeed="max" from="-314424813" id="rs_c000_i000_1534" to="104147692"/>
 <trip depart="141.0" departLane="best" departSpeed="max" from="-95937728#1" id="rs_c000_i000_1064" to="144246396#1"/>
 <trip depart="142.0" departLane="best" departSpeed="max" from="26085515#5" id="rs_c000_i000_1609" to="58423646"/>
 <trip depart="143.0" departLane="best" departSpeed="max" from="4492786" id="rs_c000_i000_1621" to="102332984#0"/>
 <trip depart="144.0" departLane="best" departSpeed="max" from="-24399325#0" id="rs_c000_i000_1607" to="24428921"/>
 <trip depart="145.0" departLane="best" departSpeed="max" from="-83510232#0" id="rs_c000_i001_218" to="234899446"/>
 <trip depart="146.0" departLane="best" departSpeed="max" from="-328040089" id="rs_c000_i000_1649" to="5091199"/>
 <trip depart="147.85" departLane="best" departSpeed="max" from="35062276" id="rs_c001_i000_25" to="234899446"/>
 <trip depart="148.0" departLane="best" departSpeed="max" from="137996244#0" id="rs_c000_i000_1675" to="24428921"/>
 <trip depart="149.0" departLane="best" departSpeed="max" from="-95937728#1" id="rs_c000_i000_253" to="144246396#1"/>
 <trip depart="151.0" departLane="best" departSpeed="max" from="-211120148" id="rs_c000_i001_114" to="35062429#0"/>
 <trip depart="153.0" departLane="best" departSpeed="max" from="-79690674#0" id="rs_c001_i000_195" to="34760663"/>
 <trip depart="154.0" departLane="best" departSpeed="max" from="-95937943#2" id="rs_c000_i000_1419_part1" to="24428921"/>
 <trip depart="167.0" departLane="best" departSpeed="max" from="-5234280#0" id="rs_c000_i000_1879" to="38455846"/>
 <trip depart="169.0" departLane="best" departSpeed="max" from="-328813517" id="rs_c001_i000_320" to="234899446"/>
 <trip depart="170.7" departLane="best" departSpeed="max" from="-30471451" id="rs_c000_i001_157" to="60727164#1"/>
 <trip depart="171.0" departLane="best" departSpeed="max" from="5234587" id="rs_c000_i001_263" to="35062429#0"/>
 <trip depart="172.0" departLane="best" departSpeed="max" from="5095197#1" id="rs_c000_i001_264" to="34760663"/>
 <trip depart="176.0" departLane="best" departSpeed="max" from="-366308474" id="rs_c000_i000_1964" to="30471451"/>
 <trip depart="176.0" departLane="best" departSpeed="max" from="8102482" id="rs_c000_i000_1965" to="24429380-AddedOffRampEdge"/>
 <trip depart="178.21" departLane="best" departSpeed="max" from="62059875#1" id="rs_c001_i000_138" to="138914231#0"/>
 <trip depart="181.0" departLane="best" departSpeed="max" from="118869284#0" id="rs_c000_i000_2018" to="26187755#0"/>
 <trip depart="189.0" departLane="best" departSpeed="max" from="-118869284#1" id="rs_c000_i000_2091" to="144246396#1"/>
 <trip depart="193.0" departLane="best" departSpeed="max" from="-211208696#0" id="rs_c001_i000_276" to="234899446"/>
 <trip depart="195.0" departLane="best" departSpeed="max" from="-10426011#1" id="rs_c000_i000_2147" to="139124541#0"/>
 <trip depart="196.0" departLane="best" departSpeed="max" from="285621686" id="rs_c000_i001_292" to="34760663"/>
 <trip depart="197.0" departLane="best" departSpeed="max" from="-59683236#1" id="rs_c000_i000_2163" to="58425043"/>
 <trip depart="197.0" departLane="best" departSpeed="max" from="-87397780" id="rs_c000_i001_293" to="1081179231"/>
 <trip depart="198.0" departLane="best" departSpeed="max" from="321098632#1" id="rs_c000_i000_2183" to="362987791#0"/>
 <trip depart="199.0" departLane="best" departSpeed="max" from="83163132" id="rs_c001_i000_380" to="234899446"/>
 <trip depart="200.0" departLane="best" departSpeed="max" from="-136721672" id="rs_c000_i000_2199" to="26187757#1"/>
 <trip depart="201.0" departLane="best" departSpeed="max" from="-929213813" id="rs_c000_i000_2221" to="58423646"/>
 <trip depart="207.0" departLane="best" departSpeed="max" from="-95937728#1" id="rs_c000_i000_698" to="144246396#1"/>
 <trip depart="209.0" departLane="best" departSpeed="max" from="-211208696#0" id="rs_c000_i001_206" to="234899446"/>
 <trip depart="209.0" departLane="best" departSpeed="max" from="-765843955" id="rs_c000_i000_2309" to="362987791#0"/>
 <trip depart="210.0" departLane="best" departSpeed="max" from="-9604697" id="rs_c000_i000_2321" to="39139679"/>
 <trip depart="213.0" departLane="best" departSpeed="max" from="300981184#1" id="rs_c000_i000_2358" to="104147692"/>
 <trip depart="214.0" departLane="best" departSpeed="max" from="-313693701" id="rs_c000_i000_2368" to="39139679"/>
 <trip depart="214.0" departLane="best" departSpeed="max" from="-369150317#0" id="rs_c000_i000_2371" to="58423646"/>
 <trip depart="216.0" departLane="best" departSpeed="max" from="-116049442" id="rs_c000_i000_2391" to="26187757#1"/>
 <trip depart="218.0" departLane="best" departSpeed="max" from="183247520" id="rs_c001_i001_54" to="35062429#0"/>
 <trip depart="219.0" departLane="best" departSpeed="max" from="-62106322#0" id="rs_c000_i000_376" to="25980639"/>
 <trip depart="219.0" departLane="best" departSpeed="max" from="906802009" id="rs_c001_i000_425" to="234899446"/>
 <trip depart="219.0" departLane="best" departSpeed="max" from="-26165754#2" id="rs_c001_i000_427" to="58423646"/>
 <trip depart="225.49" departLane="best" departSpeed="max" from="-30471451" id="rs_c001_i000_256" to="60727164#1"/>
 <trip depart="232.0" departLane="best" departSpeed="max" from="4229427#1" id="rs_c000_i000_2546" to="362987791#0"/>
 <trip depart="232.0" departLane="best" departSpeed="max" from="-233171094#0" id="rs_c000_i000_2547" to="34760663"/>
 <trip depart="238.0" departLane="best" departSpeed="max" from="117099147#0" id="rs_c000_i000_2613" to="58423646"/>
 <trip depart="238.0" departLane="best" departSpeed="max" from="78535798#0" id="rs_c000_i000_2617" to="60727164#1"/>
 <trip depart="238.0" departLane="best" departSpeed="max" from="-237837493#0" id="rs_c000_i000_2622" to="39139679"/>
 <trip depart="241.0" departLane="best" departSpeed="max" from="-20179292#0" id="rs_c000_i000_2655" to="530282943"/>
 <trip depart="242.0" departLane="best" departSpeed="max" from="-10426171#1" id="rs_c001_i000_473" to="35062429#0"/>
 <trip depart="242.0" departLane="best" departSpeed="max" from="97097111#1" id="rs_c001_i001_59" to="104147692"/>
 <trip depart="242.0" departLane="best" departSpeed="max" from="8064520" id="rs_c000_i000_2658" to="30471451"/>
 <trip depart="243.03" departLane="best" departSpeed="max" from="62059875#1" id="rs_c001_i000_156_part1" to="34760663"/>
 <trip depart="250.0" departLane="best" departSpeed="max" from="59699456" id="rs_c000_i000_2742" to="39139679"/>
 <trip depart="251.03" departLane="best" departSpeed="max" from="240100844#0" id="rs_c000_i000_295" to="530282943"/>
 <trip depart="254.0" departLane="best" departSpeed="max" from="-61565968" id="rs_c001_i001_64" to="30326722"/>
 <trip depart="259.0" departLane="best" departSpeed="max" from="95100622" id="rs_c000_i000_2851" to="26187757#1"/>
 <trip depart="260.0" departLane="best" departSpeed="max" from="-15242129#0" id="rs_c000_i001_391" to="38455846"/>
 <trip depart="261.0" departLane="best" departSpeed="max" from="125351110" id="rs_c000_i000_2871" to="144246396#1"/>
 <trip depart="262.0" departLane="best" departSpeed="max" from="-136721679#0" id="rs_c000_i000_2889" to="26187757#1"/>
 <trip depart="262.0" departLane="best" departSpeed="max" from="-63134322#1" id="rs_c000_i001_400" to="25980639"/>
 <trip depart="263.0" departLane="best" departSpeed="max" from="301503168#1" id="rs_c000_i000_2206" to="35061798"/>
 <trip depart="265.0" departLane="best" departSpeed="max" from="-10372364#0" id="rs_c000_i001_402" to="102332984#0"/>
 <trip depart="266.0" departLane="best" departSpeed="max" from="-211120148" id="rs_c001_i000_370" to="35062429#0"/>
 <trip depart="266.0" departLane="best" departSpeed="max" from="-212694591" id="rs_c000_i000_2921" to="26187755#0"/>
 <trip depart="267.0" departLane="best" departSpeed="max" from="166533654#1" id="rs_c000_i000_2936" to="139124541#0"/>
 <trip depart="268.0" departLane="best" departSpeed="max" from="-301127378" id="rs_c000_i000_2948" to="26187757#1"/>
 <trip depart="269.0" departLane="best" departSpeed="max" from="98236882#1" id="rs_c001_i000_511" to="60727164#1"/>
 <trip depart="270.0" departLane="best" departSpeed="max" from="-50044720#1" id="rs_c000_i001_409" to="38455846"/>
 <trip depart="272.0" departLane="best" departSpeed="max" from="-95937728#1" id="rs_c000_i000_1946" to="144246396#1"/>
 <trip depart="273.0" departLane="best" departSpeed="max" from="73225130#1" id="rs_c001_i000_520" to="24429380-AddedOffRampEdge"/>
 <trip depart="273.0" departLane="best" departSpeed="max" from="83506741" id="rs_c000_i000_3027" to="60727164#1"/>
 <trip depart="274.51" departLane="best" departSpeed="max" from="-30471451" id="rs_c000_i001_196" to="60727164#1"/>
 <trip depart="274.87" departLane="best" departSpeed="max" from="-30471451" id="rs_c000_i000_605" to="362987791#0"/>
 <trip depart="277.78" departLane="best" departSpeed="max" from="240100844#0" id="rs_c001_i000_160" to="530282943"/>
 <trip depart="280.0" departLane="best" departSpeed="max" from="301503168#1" id="rs_c000_i000_2410" to="35061798"/>
 <trip depart="285.0" departLane="best" departSpeed="max" from="-301127378" id="rs_c000_i001_435" to="35062429#0"/>
 <trip depart="288.57" departLane="best" departSpeed="max" from="38674850" id="rs_c000_i000_578" to="38674844"/>
 <trip depart="290.0" departLane="best" departSpeed="max" from="-14434303" id="rs_c001_i000_551" to="35062429#0"/>
 <trip depart="292.0" departLane="best" departSpeed="max" from="35772871" id="rs_c001_i000_549" to="104147692"/>
 <trip depart="293.0" departLane="best" departSpeed="max" from="-224710093#0" id="rs_c000_i000_3232" to="530282943"/>
 <trip depart="293.0" departLane="best" departSpeed="max" from="-78343357" id="rs_c000_i000_3235" to="117654824#0"/>
 <trip depart="294.0" departLane="best" departSpeed="max" from="4229427#2" id="rs_c001_i000_561" to="60727164#1"/>
 <trip depart="296.0" departLane="best" departSpeed="max" from="62059875#1" id="rs_c001_i000_51" to="34760663"/>
 <trip depart="296.0" departLane="best" departSpeed="max" from="286243202" id="rs_c000_i000_3259" to="25980639"/>
 <trip depart="299.0" departLane="best" departSpeed="max" from="-24399330#1" id="rs_c001_i000_471" to="58423646"/>
 <trip depart="299.58" departLane="best" departSpeed="max" from="257423660#1" id="rs_c000_i000_1658" to="104147692"/>
 <trip depart="302.0" departLane="best" departSpeed="max" from="-75565714" id="rs_c001_i000_578" to="30326722"/>
 <trip depart="304.9" departLane="best" departSpeed="max" from="-30471451" id="rs_c000_i000_2345" to="60727164#1"/>
 <trip depart="305.0" departLane="best" departSpeed="max" from="-26040356#1" id="rs_c000_i000_3360" to="58423646"/>
 <trip depart="305.0" departLane="best" departSpeed="max" from="35772871" id="rs_c000_i002_65" to="24429380-AddedOffRampEdge"/>
 <trip depart="306.0" departLane="best" departSpeed="max" from="-96700281" id="rs_c000_i000_3372" to="286340278"/>
 <trip depart="308.0" departLane="best" departSpeed="max" from="-95937728#1" id="rs_c000_i001_397" to="144246396#1"/>
 <trip depart="309.0" departLane="best" departSpeed="max" from="-314422898#0" id="rs_c000_i000_3396" to="39139679"/>
 <trip depart="310.47" departLane="best" departSpeed="max" from="240100844#0" id="rs_c000_i000_28" to="530282943"/>
 <trip depart="311.0" departLane="best" departSpeed="max" from="-122529096#6" id="rs_c000_i000_3427" to="26187755#0"/>
 <trip depart="314.0" departLane="best" departSpeed="max" from="-77608974#0" id="rs_c001_i000_598" to="234899446"/>
 <trip depart="314.0" departLane="best" departSpeed="max" from="349896687#1" id="rs_c000_i000_3457" to="1081179231"/>
 <trip depart="315.0" departLane="best" departSpeed="max" from="-10425852" id="rs_c000_i001_487" to="35062429#0"/>
 <trip depart="316.0" departLane="best" departSpeed="max" from="-79690674#0" id="rs_c000_i001_296" to="25980639"/>
 <trip depart="316.0" departLane="best" departSpeed="max" from="-211208696#0" id="rs_c001_i000_417" to="24424238#0"/>
 <trip depart="316.0" departLane="best" departSpeed="max" from="-10425852" id="rs_c001_i000_602" to="35062429#0"/>
 <trip depart="317.34" departLane="best" departSpeed="max" from="58097865" id="rs_c001_i000_86" to="104147692"/>
 <trip depart="318.0" departLane="best" departSpeed="max" from="-5230785" id="rs_c001_i000_604" to="234899446"/>
 <trip depart="318.0" departLane="best" departSpeed="max" from="84656707#1" id="rs_c000_i000_3508" to="39139679"/>
 <trip depart="319.0" departLane="best" departSpeed="max" from="-211120148" id="rs_c000_i000_2437" to="35062429#0"/>
 <trip depart="321.0" departLane="best" departSpeed="max" from="-95937728#1" id="rs_c000_i000_2701" to="144246396#1"/>
 <trip depart="322.0" departLane="best" departSpeed="max" from="14571549" id="rs_c000_i001_500" to="38455846"/>
 <trip depart="323.0" departLane="best" departSpeed="max" from="-132047180" id="rs_c000_i000_3565" to="58423646"/>
 <trip depart="323.36" departLane="best" departSpeed="max" from="38674850" id="rs_c001_i000_87" to="38674844"/>
 <trip depart="327.0" departLane="best" departSpeed="max" from="191374712#1" id="rs_c001_i000_619" to="104147692"/>
 <trip depart="329.0" departLane="best" departSpeed="max" from="-20179292#0" id="rs_c000_i000_3634" to="530282943"/>
 <trip depart="332.0" departLane="best" departSpeed="max" from="-126449297#0" id="rs_c000_i000_3622" to="60727164#1"/>
 <trip depart="338.0" departLane="best" departSpeed="max" from="56253839" id="rs_c001_i000_644" to="58425043"/>
 <trip depart="338.0" departLane="best" departSpeed="max" from="-314424813" id="rs_c000_i000_3721" to="102332984#0"/>
 <trip depart="342.0" departLane="best" departSpeed="max" from="-314426030#1" id="rs_c000_i000_3762" to="362987791#0"/>
 <trip depart="344.0" departLane="best" departSpeed="max" from="183247520" id="rs_c000_i000_3761" to="116049788#1"/>
 <trip depart="348.0" departLane="best" departSpeed="max" from="-122529101" id="rs_c001_i000_660" to="26187755#0"/>
 <trip depart="351.0" departLane="best" departSpeed="max" from="-211120148" id="rs_c000_i000_2815" to="35062429#0"/>
 <trip depart="353.0" departLane="best" departSpeed="max" from="-95937728#1" id="rs_c000_i000_2986" to="144246396#1"/>
 <trip depart="354.0" departLane="best" departSpeed="max" from="-211120148" id="rs_c001_i000_475" to="35062429#0"/>
 <trip depart="355.0" departLane="best" departSpeed="max" from="-8394848" id="rs_c000_i002_77" to="39139679"/>
 <trip depart="356.43" departLane="best" departSpeed="max" from="58097865" id="rs_c000_i000_1973" to="104147692"/>
 <trip depart="357.0" departLane="best" departSpeed="max" from="-81646465#1" id="rs_c000_i000_3926" to="35606385#0"/>
 <trip depart="358.0" departLane="best" departSpeed="max" from="86527638#1" id="rs_c000_i000_3936" to="1081179231"/>
 <trip depart="360.0" departLane="best" departSpeed="max" from="32461045#0" id="rs_c001_i000_681" to="839402626#1"/>
 <trip depart="363.0" departLane="best" departSpeed="max" from="-52673136" id="rs_c001_i001_89" to="60727164#1"/>
 <trip depart="364.0" departLane="best" departSpeed="max" from="166533654#1" id="rs_c001_i000_690" to="35062429#0"/>
 <trip depart="364.25" departLane="best" departSpeed="max" from="58097865" id="rs_c001_i000_232" to="104147692"/>
 <trip depart="367.0" departLane="best" departSpeed="max" from="94107492" id="rs_c001_i000_696" to="234899446"/>
 <trip depart="368.0" departLane="best" departSpeed="max" from="138350778#1" id="rs_c000_i000_4035" to="117654824#0"/>
 <trip depart="368.0" departLane="best" departSpeed="max" from="132817973#0" id="rs_c000_i001_568" to="139124541#0"/>
 <trip depart="368.93" departLane="best" departSpeed="max" from="257423660#1" id="rs_c001_i000_81" to="104147692"/>
 <trip depart="370.0" departLane="best" departSpeed="max" from="301503276" id="rs_c000_i000_4067" to="35061798"/>
 <trip depart="370.0" departLane="best" departSpeed="max" from="-10426219" id="rs_c000_i001_570" to="35062429#0"/>
 <trip depart="379.0" departLane="best" departSpeed="max" from="-211208696#0" id="rs_c001_i000_701" to="24424238#0"/>
 <trip depart="381.0" departLane="best" departSpeed="max" from="117654826" id="rs_c000_i000_4209" to="24405134"/>
 <trip depart="382.0" departLane="best" departSpeed="max" from="-32016573" id="rs_c000_i000_4217" to="104147692"/>
 <trip depart="384.0" departLane="best" departSpeed="max" from="-74693877" id="rs_c001_i000_732" to="104147692"/>
 <trip depart="384.0" departLane="best" departSpeed="max" from="122529102#2" id="rs_c000_i000_4246" to="26187755#0"/>
 <trip depart="384.0" departLane="best" departSpeed="max" from="-58603104" id="rs_c000_i000_4247" to="117654824#0"/>
 <trip depart="386.0" departLane="best" departSpeed="max" from="24398203#1" id="rs_c000_i000_3987" to="58423646"/>
 <trip depart="388.0" departLane="best" departSpeed="max" from="-122529094#10" id="rs_c000_i000_4275" to="26187755#0"/>
 <trip depart="388.0" departLane="best" departSpeed="max" from="5091199" id="rs_c000_i000_4287" to="34760663"/>
 <trip depart="389.0" departLane="best" departSpeed="max" from="-5234378" id="rs_c001_i000_740" to="234899446"/>
 <trip depart="392.0" departLane="best" departSpeed="max" from="-28918381#0" id="rs_c000_i000_4344" to="24429380-AddedOffRampEdge"/>
 <trip depart="392.52" departLane="best" departSpeed="max" from="-30471451" id="rs_c000_i001_369" to="60727164#1"/>
 <trip depart="393.0" departLane="best" departSpeed="max" from="-10426011#1" id="rs_c001_i000_751" to="35062429#0"/>
 <trip depart="394.0" departLane="best" departSpeed="max" from="-52291443" id="rs_c001_i000_753" to="530282943"/>
 <trip depart="395.0" departLane="best" departSpeed="max" from="-79690674#0" id="rs_c000_i000_412" to="34760663"/>
 <trip depart="398.0" departLane="best" departSpeed="max" from="5095178#0" id="rs_c000_i000_4398" to="34760663"/>
 <trip depart="398.0" departLane="best" departSpeed="max" from="-23309338" id="rs_c000_i001_614" to="38325510"/>
 <trip depart="400.0" departLane="best" departSpeed="max" from="30015228#0" id="rs_c001_i000_639" to="38674844"/>
 <trip depart="400.0" departLane="best" departSpeed="max" from="-24399330#1" id="rs_c001_i000_632" to="58423646"/>
 <trip depart="400.0" departLane="best" departSpeed="max" from="-95799435" id="rs_c000_i001_619" to="362987791#0"/>
 <trip depart="402.0" departLane="best" departSpeed="max" from="-22604699#0" id="rs_c000_i000_4461" to="104147692"/>
 <trip depart="402.0" departLane="best" departSpeed="max" from="-24399329" id="rs_c000_i000_4464" to="58423646"/>
 <trip depart="403.12" departLane="best" departSpeed="max" from="-30471451" id="rs_c001_i000_210" to="61367454#1"/>
 <trip depart="404.0" departLane="best" departSpeed="max" from="-83488850" id="rs_c001_i000_769" to="234899446"/>
 <trip depart="408.0" departLane="best" departSpeed="max" from="-61367419#0" id="rs_c000_i000_4524" to="24429380-AddedOffRampEdge"/>
 <trip depart="410.0" departLane="best" departSpeed="max" from="-74011129#0" id="rs_c000_i000_4548" to="117654824#0"/>
 <trip depart="411.0" departLane="best" departSpeed="max" from="5234573#1" id="rs_c000_i000_4561" to="29970080#0"/>
 <trip depart="413.0" departLane="best" departSpeed="max" from="-217696289" id="rs_c001_i000_794" to="35062429#0"/>
 <trip depart="413.0" departLane="best" departSpeed="max" from="-118155450" id="rs_c000_i000_4591" to="26187757#1"/>
 <trip depart="416.0" departLane="best" departSpeed="max" from="-95212556" id="rs_c000_i000_4637" to="26187757#1"/>
 <trip depart="417.0" departLane="best" departSpeed="max" from="-328253309#0" id="rs_c000_i000_4624" to="362987791#0"/>
 <trip depart="418.12" departLane="best" departSpeed="max" from="30471452#0" id="rs_c000_i000_242" to="234899446"/>
 <trip depart="421.0" departLane="best" departSpeed="max" from="133104420#0" id="rs_c000_i000_4636" to="362987791#0"/>
 <trip depart="422.0" departLane="best" departSpeed="max" from="-335084841#1" id="rs_c000_i000_4684" to="234899446"/>
 <trip depart="422.0" departLane="best" departSpeed="max" from="-210457775#1" id="rs_c000_i000_4689" to="102332984#0"/>
 <trip depart="422.89" departLane="best" departSpeed="max" from="240100844#0" id="rs_c000_i000_2155" to="530282943"/>
 <trip depart="423.0" departLane="best" departSpeed="max" from="631862806" id="rs_c001_i000_812" to="234899446"/>
 <trip depart="430.0" departLane="best" departSpeed="max" from="-26165754#2" id="rs_c000_i000_4783" to="24428921"/>
 <trip depart="430.39" departLane="best" departSpeed="max" from="-30471451" id="rs_c000_i000_2866" to="60727164#1"/>
 <trip depart="432.0" departLane="best" departSpeed="max" from="-24399330#0" id="rs_c000_i000_4812" to="58423646"/>
 <trip depart="432.35" departLane="best" departSpeed="max" from="-30471451" id="rs_c000_i000_2673" to="60727164#1"/>
 <trip depart="432.39" departLane="best" departSpeed="max" from="-30471451" id="rs_c000_i000_2587" to="362987791#0"/>
 <trip depart="433.0" departLane="best" departSpeed="max" from="118155456#0" id="rs_c000_i000_4816" to="58423646"/>
 <trip depart="433.0" departLane="best" departSpeed="max" from="118864079#1" id="rs_c000_i000_4821" to="58423646"/>
 <trip depart="435.29" departLane="best" departSpeed="max" from="-30471451" id="rs_c001_i001_74" to="60727164#1"/>
 <trip depart="435.33" departLane="best" departSpeed="max" from="-30471451" id="rs_c000_i001_467" to="362987791#0"/>
 <trip depart="437.0" departLane="best" departSpeed="max" from="14566949" id="rs_c000_i000_4863" to="38455846"/>
 <trip depart="437.0" departLane="best" departSpeed="max" from="-4232328" id="rs_c000_i000_4872" to="530282943"/>
 <trip depart="437.0" departLane="best" departSpeed="max" from="644345097" id="rs_c000_i001_678" to="1081179231"/>
 <trip depart="437.04" departLane="best" departSpeed="max" from="25600863" id="rs_c000_i000_987" to="24429380-AddedOffRampEdge"/>
 <trip depart="438.0" departLane="best" departSpeed="max" from="116049443#1" id="rs_c000_i000_4420_part1" to="144246396#1"/>
 <trip depart="439.0" departLane="best" departSpeed="max" from="56253839" id="rs_c001_i000_853" to="25980639"/>
 <trip depart="439.0" departLane="best" departSpeed="max" from="4361529#1" id="rs_c000_i000_4895" to="26187757#1"/>
 <trip depart="440.0" departLane="best" departSpeed="max" from="-26378768" id="rs_c000_i000_4908" to="34776006"/>
 <trip depart="440.64" departLane="best" departSpeed="max" from="30471452#0" id="rs_c000_i001_51" to="60727164#1"/>
 <trip depart="443.0" departLane="best" departSpeed="max" from="-212694590" id="rs_c000_i000_4941" to="144246396#1"/>
 <trip depart="444.0" departLane="best" departSpeed="max" from="24398203#1" id="rs_c000_i000_4955" to="58423646"/>
 <trip depart="444.37" departLane="best" departSpeed="max" from="62059875#1" id="rs_c000_i000_763" to="34760663"/>
 <trip depart="445.52" departLane="best" departSpeed="max" from="-30471451" id="rs_c000_i000_2251" to="60727164#1"/>
 <trip depart="446.67" departLane="best" departSpeed="max" from="38674850" id="rs_c000_i000_104" to="38674844"/>
 <trip depart="447.0" departLane="best" departSpeed="max" from="-211120148" id="rs_c000_i000_4297" to="139124541#0"/>
 <trip depart="447.0" departLane="best" departSpeed="max" from="4233644#0" id="rs_c000_i000_4979" to="237368116#1"/>
 <trip depart="448.0" departLane="best" departSpeed="max" from="122529098#0" id="rs_c000_i000_4992" to="26187757#1"/>
 <trip depart="450.0" departLane="best" departSpeed="max" from="-14573382#0" id="rs_c000_i000_5011" to="35062429#0"/>