<?xml version="1.0" encoding="utf-8"?>
<routes>
 <trip depart="7.0" departLane="best" departSpeed="max" from="5231759" id="rs_c000_i000_81" to="29970080#0"/>
 <trip depart="20.0" departLane="best" departSpeed="max" from="-61367432" id="rs_c000_i000_245" to="104147692"/>
 <trip depart="24.0" departLane="best" departSpeed="max" from="219528064" id="rs_c001_i001_7" to="234899446"/>
 <trip depart="48.0" departLane="best" departSpeed="max" from="-116049439#1" id="rs_c001_i000_104" to="26187757#1"/>
 <trip depart="51.0" departLane="best" departSpeed="max" from="51340803#1" id="rs_c001_i000_35" to="35062429#0"/>
 <trip depart="52.0" departLane="best" departSpeed="max" from="-118869284#1" id="rs_c000_i000_598" to="144246396#1"/>
 <trip depart="55.0" departLane="best" departSpeed="max" from="-61566225#0" id="rs_c000_i000_653" to="30471451"/>
 <trip depart="57.0" departLane="best" departSpeed="max" from="24031456#4" id="rs_c000_i000_681" to="58423646"/>
 <trip depart="58.0" departLane="best" departSpeed="max" from="-118155456#2" id="rs_c000_i000_685" to="26187757#1"/>
 <trip depart="69.0" departLane="best" departSpeed="max" from="-147136167" id="rs_c001_i000_155" to="35062429#0"/>
 <trip depart="79.0" departLane="best" departSpeed="max" from="-211208696#0" id="rs_c000_i000_161" to="102332984#0"/>
 <trip depart="79.0" departLane="best" departSpeed="max" from="-63322102#1" id="rs_c000_i000_918" to="25980639"/>
 <trip depart="82.0" departLane="best" departSpeed="max" from="-5234278#1" id="rs_c000_i000_940" to="102332984#0"/>
 <trip depart="85.0" departLane="best" departSpeed="max" from="-188890214" id="rs_c000_i000_971" to="28377479#0"/>
 <trip depart="86.0" departLane="best" departSpeed="max" from="83163114#1" id="rs_c000_i000_990" to="39139679"/>
 <trip depart="89.0" departLane="best" departSpeed="max" from="26369585" id="rs_c001_i000_194" to="-61997814#0"/>
 <trip depart="91.0" departLane="best" departSpeed="max" from="51340803#1" id="rs_c001_i000_59" to="35062429#0"/>
 <trip depart="91.0" departLane="best" departSpeed="max" from="183247520" id="rs_c000_i001_131" to="35062429#0"/>
 <trip depart="92.0" departLane="best" departSpeed="max" from="-328266345" id="rs_c000_i000_1050" to="102332984#0"/>
 <trip depart="92.0" departLane="best" departSpeed="max" from="-26127182#1" id="rs_c000_i000_1060" to="26187755#0"/>
 <trip depart="93.0" departLane="best" departSpeed="max" from="4643592" id="rs_c000_i001_133" to="362987791#0"/>
 <trip depart="96.0" departLane="best" departSpeed="max" from="15242129#1" id="rs_c000_i000_1095" to="38455846"/>
 <trip depart="98.0" departLane="best" departSpeed="max" from="-83497364" id="rs_c000_i000_1132" to="1081179231"/>
 <trip depart="100.0" departLane="best" departSpeed="max" from="84017451#0" id="rs_c000_i000_1143" to="-330920155"/>
 <trip depart="105.0" departLane="best" departSpeed="max" from="-211208696#0" id="rs_c001_i000_103" to="234899446"/>
 <trip depart="105.0" departLane="best" departSpeed="max" from="-301127377" id="rs_c000_i000_1200" to="26187757#1"/>
 <trip depart="109.0" departLane="best" departSpeed="max" from="51340803#1" id="rs_c000_i001_146" to="139124541#0"/>
 <trip depart="112.0" departLane="best" departSpeed="max" from="-95937728#1" id="rs_c000_i000_782_part1" to="144246396#1"/>
 <trip depart="118.0" departLane="best" departSpeed="max" from="-87397780" id="rs_c000_i000_1330" to="1081179231"/>
 <trip depart="118.0" departLane="best" departSpeed="max" from="-136721667" id="rs_c000_i000_1338" to="26187757#1"/>
 <trip depart="120.0" departLane="best" departSpeed="max" from="-117643624" id="rs_c000_i000_1352" to="25980639"/>
 <trip depart="121.0" departLane="best" departSpeed="max" from="26369585" id="rs_c000_i000_1361" to="102332984#0"/>
 <trip depart="121.0" departLane="best" departSpeed="max" from="5091199" id="rs_c001_i000_246" to="34760663"/>
 <trip depart="124.0" departLane="best" departSpeed="max" from="4244655" id="rs_c000_i000_1413" to="102332984#0"/>
 <trip depart="129.0" departLane="best" departSpeed="max" from="-39316011#1" id="rs_c000_i000_1471" to="286340282"/>
 <trip depart="136.0" departLane="best" departSpeed="max" from="-95937728#1" id="rs_c000_i000_1112" to="144246396#1"/>
 <trip depart="142.0" departLane="best" departSpeed="max" from="26085515#5" id="rs_c000_i000_1609" to="58423646"/>
 <trip depart="144.0" departLane="best" departSpeed="max" from="-51722315#0" id="rs_c001_i000_293" to="117654824#0"/>
 <trip depart="149.0" departLane="best" departSpeed="max" from="-95937728#1" id="rs_c000_i000_253" to="144246396#1"/>
 <trip depart="156.0" departLane="best" departSpeed="max" from="-28840232#0" id="rs_c000_i000_1756" to="58423646"/>
 <trip depart="165.0" departLane="best" departSpeed="max" from="-234540368" id="rs_c000_i000_1853" to="38325510"/>
 <trip depart="169.0" departLane="best" departSpeed="max" from="-328813517" id="rs_c001_i000_320" to="234899446"/>
 <trip depart="171.0" departLane="best" departSpeed="max" from="462046218" id="rs_c001_i000_340" to="38455846"/>
 <trip depart="172.0" departLane="best" departSpeed="max" from="5095197#1" id="rs_c000_i001_264" to="34760663"/>
 <trip depart="174.0" departLane="best" departSpeed="max" from="-32016029#2" id="rs_c000_i000_1949" to="104147692"/>
 <trip depart="176.0" departLane="best" departSpeed="max" from="-366308474" id="rs_c000_i000_1964" to="30471451"/>
 <trip depart="178.0" departLane="best" departSpeed="max" from="-211120148" id="rs_c000_i000_1400" to="35062429#0"/>
 <trip depart="178.63" departLane="best" departSpeed="max" from="-30471451" id="rs_c001_i000_46" to="102332984#0"/>
 <trip depart="181.0" departLane="best" departSpeed="max" from="118869284#0" id="rs_c000_i000_2018" to="26187755#0"/>
 <trip depart="187.0" departLane="best" departSpeed="max" from="14571550#1" id="rs_c000_i002_46" to="38455846"/>
 <trip depart="188.0" departLane="best" departSpeed="max" from="-644345091#0" id="rs_c001_i000_292" to="60727164#1"/>
 <trip depart="188.0" departLane="best" departSpeed="max" from="-125589533" id="rs_c000_i000_2081" to="530282943"/>
 <trip depart="198.0" departLane="best" departSpeed="max" from="321098632#1" id="rs_c000_i000_2183" to="362987791#0"/>
 <trip depart="199.0" departLane="best" departSpeed="max" from="83163132" id="rs_c001_i000_380" to="234899446"/>
 <trip depart="203.0" departLane="best" departSpeed="max" from="-16345605#0" id="rs_c001_i000_391" to="35062429#0"/>
 <trip depart="203.0" departLane="best" departSpeed="max" from="-122529110" id="rs_c000_i000_2237" to="144246396#1"/>
 <trip depart="209.0" departLane="best" departSpeed="max" from="-765843955" id="rs_c000_i000_2309" to="362987791#0"/>
 <trip depart="214.0" departLane="best" departSpeed="max" from="-313693701" id="rs_c000_i000_2368" to="39139679"/>
 <trip depart="214.0" departLane="best" departSpeed="max" from="-369150317#0" id="rs_c000_i000_2371" to="58423646"/>
 <trip depart="216.0" departLane="best" departSpeed="max" from="-116049442" id="rs_c000_i000_2391" to="26187757#1"/>
 <trip depart="217.0" departLane="best" departSpeed="max" from="10558745" id="rs_c000_i000_2397" to="104147692"/>
 <trip depart="218.0" departLane="best" departSpeed="max" from="4680630" id="rs_c000_i000_2403" to="104147692"/>
 <trip depart="228.0" departLane="best" departSpeed="max" from="-95937728#1" id="rs_c000_i000_1362" to="144246396#1"/>
 <trip depart="232.0" departLane="best" departSpeed="max" from="4229427#1" id="rs_c000_i000_2546" to="362987791#0"/>
 <trip depart="234.0" departLane="best" departSpeed="max" from="-306713165" id="rs_c000_i000_2568" to="38325510"/>
 <trip depart="241.0" departLane="best" departSpeed="max" from="-20179292#0" id="rs_c000_i000_2655" to="530282943"/>
 <trip depart="246.0" departLane="best" departSpeed="max" from="-330415869" id="rs_c000_i000_2700" to="38455846"/>
 <trip depart="247.0" departLane="best" departSpeed="max" from="35061795" id="rs_c001_i000_480" to="38325510"/>
 <trip depart="252.0" departLane="best" departSpeed="max" from="-62070348" id="rs_c001_i000_491" to="30326722"/>
 <trip depart="254.0" departLane="best" departSpeed="max" from="-61565968" id="rs_c001_i001_64" to="30326722"/>
 <trip depart="257.0" departLane="best" departSpeed="max" from="-79690674#0" id="rs_c001_i000_132" to="30471451"/>
 <trip depart="259.8" departLane="best" departSpeed="max" from="-30471451" id="rs_c001_i000_172" to="60727164#1"/>
 <trip depart="260.0" departLane="best" departSpeed="max" from="-15242129#0" id="rs_c000_i001_391" to="38455846"/>
 <trip depart="262.0" departLane="best" departSpeed="max" from="-136721679#0" id="rs_c000_i000_2889" to="26187757#1"/>
 <trip depart="263.0" departLane="best" departSpeed="max" from="301503168#1" id="rs_c000_i000_2206" to="35061798"/>
 <trip depart="269.0" departLane="best" departSpeed="max" from="98236882#1" id="rs_c001_i000_511" to="60727164#1"/>
 <trip depart="270.0" departLane="best" departSpeed="max" from="-50044720#1" id="rs_c000_i001_409" to="38455846"/>
 <trip depart="272.33" departLane="best" departSpeed="max" from="-30471451" id="rs_c000_i000_1810" to="362987791#0"/>
 <trip depart="278.0" departLane="best" departSpeed="max" from="56253839" id="rs_c000_i000_3068" to="58425043"/>
 <trip depart="281.0" departLane="best" departSpeed="max" from="51340803#1" id="rs_c000_i000_2577" to="35062429#0"/>
 <trip depart="281.0" departLane="best" departSpeed="max" from="-286404309" id="rs_c000_i001_426" to="58423646"/>
 <trip depart="285.0" departLane="best" departSpeed="max" from="-301127378" id="rs_c000_i001_435" to="35062429#0"/>
 <trip depart="293.0" departLane="best" departSpeed="max" from="237386917#0" id="rs_c000_i000_3233" to="-330920155"/>
 <trip depart="293.0" departLane="best" departSpeed="max" from="-78343357" id="rs_c000_i000_3235" to="117654824#0"/>
 <trip depart="294.0" departLane="best" departSpeed="max" from="4229427#2" id="rs_c001_i000_561" to="60727164#1"/>
 <trip depart="296.0" departLane="best" departSpeed="max" from="286243202" id="rs_c000_i000_3259" to="25980639"/>
 <trip depart="297.0" departLane="best" departSpeed="max" from="300981184#0" id="rs_c000_i000_3262" to="26187757#1"/>
 <trip depart="297.0" departLane="best" departSpeed="max" from="84656707#1" id="rs_c000_i000_3268" to="39139679"/>
 <trip depart="299.0" departLane="best" departSpeed="max" from="-24399330#1" id="rs_c001_i000_471" to="58423646"/>
 <trip depart="299.58" departLane="best" departSpeed="max" from="257423660#1" id="rs_c000_i000_1658" to="104147692"/>
 <trip depart="304.0" departLane="best" departSpeed="max" from="-125589533" id="rs_c001_i000_582" to="530282943"/>
 <trip depart="309.0" departLane="best" departSpeed="max" from="-126449297#1" id="rs_c000_i000_3399" to="362987791#0"/>
 <trip depart="311.0" departLane="best" departSpeed="max" from="-290255303#2" id="rs_c000_i000_3424" to="26187757#1"/>
 <trip depart="316.0" departLane="best" departSpeed="max" from="-79690674#0" id="rs_c000_i001_296" to="25980639"/>
 <trip depart="319.0" departLane="best" departSpeed="max" from="-211120148" id="rs_c000_i000_2437" to="35062429#0"/>
 <trip depart="320.27" departLane="best" departSpeed="max" from="257423660#1" id="rs_c001_i000_187" to="30471451"/>
 <trip depart="321.11" departLane="best" departSpeed="max" from="240100844#0" id="rs_c001_i000_49" to="530282943"/>
 <trip depart="323.36" departLane="best" departSpeed="max" from="38674850" id="rs_c001_i000_87" to="38674844"/>
 <trip depart="329.0" departLane="best" departSpeed="max" from="-20179292#0" id="rs_c000_i000_3634" to="530282943"/>
 <trip depart="338.0" departLane="best" departSpeed="max" from="56253839" id="rs_c001_i000_644" to="58425043"/>
 <trip depart="338.0" departLane="best" departSpeed="max" from="-15242128#0" id="rs_c000_i000_3720" to="38455846"/>
 <trip depart="342.0" departLane="best" departSpeed="max" from="-38336405#0" id="rs_c000_i000_3759" to="104147692"/>
 <trip depart="348.0" departLane="best" departSpeed="max" from="-122529101" id="rs_c001_i000_660" to="26187755#0"/>
 <trip depart="353.0" departLane="best" departSpeed="max" from="-95937728#1" id="rs_c000_i000_2986" to="144246396#1"/>
 <trip depart="356.0" departLane="best" departSpeed="max" from="5091197#0" id="rs_c000_i000_3899" to="104147692"/>
 <trip depart="359.36" departLane="best" departSpeed="max" from="58097865" id="rs_c001_i000_363" to="104147692"/>
 <trip depart="360.0" departLane="best" departSpeed="max" from="32461045#0" id="rs_c001_i000_681" to="839402626#1"/>
 <trip depart="364.0" departLane="best" departSpeed="max" from="166533654#1" id="rs_c001_i000_690" to="35062429#0"/>
 <trip depart="368.0" departLane="best" departSpeed="max" from="4353778#1" id="rs_c000_i000_4037" to="58423646"/>
 <trip depart="368.0" departLane="best" departSpeed="max" from="132817973#0" id="rs_c000_i001_568" to="139124541#0"/>
 <trip depart="370.0" departLane="best" departSpeed="max" from="-10426219" id="rs_c000_i001_570" to="35062429#0"/>
 <trip depart="375.04" departLane="best" departSpeed="max" from="38674850" id="rs_c000_i000_1921" to="38674844"/>
 <trip depart="377.0" departLane="best" departSpeed="max" from="166533654#1" id="rs_c000_i000_4161" to="139124541#0"/>
 <trip depart="384.0" departLane="best" departSpeed="max" from="-58603104" id="rs_c000_i000_4247" to="117654824#0"/>
 <trip depart="384.96" departLane="best" departSpeed="max" from="30471452#0" id="rs_c000_i000_112" to="-61565232#0"/>
 <trip depart="387.0" departLane="best" departSpeed="max" from="-4244655" id="rs_c001_i000_735" to="234899446"/>
 <trip depart="388.0" departLane="best" departSpeed="max" from="-16345605#0" id="rs_c001_i000_736" to="35062429#0"/>
 <trip depart="388.0" departLane="best" departSpeed="max" from="5091199" id="rs_c000_i000_4287" to="34760663"/>
 <trip depart="391.0" departLane="best" departSpeed="max" from="-125351165#1" id="rs_c000_i000_3672" to="26187755#0"/>
 <trip depart="392.0" departLane="best" departSpeed="max" from="-30471451" id="rs_c000_i000_4312" to="362987791#0"/>
 <trip depart="392.37" departLane="best" departSpeed="max" from="240100844#0" id="rs_c001_i000_233" to="530282943"/>
 <trip depart="394.0" departLane="best" departSpeed="max" from="83488871" id="rs_c001_i000_754" to="234899446"/>
 <trip depart="397.0" departLane="best" departSpeed="max" from="-79690674#0" id="rs_c000_i000_1214" to="34760663"/>
 <trip depart="398.0" departLane="best" departSpeed="max" from="5095178#0" id="rs_c000_i000_4398" to="34760663"/>
 <trip depart="398.17" departLane="best" departSpeed="max" from="62059875#1" id="rs_c001_i001_22" to="34760663"/>
 <trip depart="400.0" departLane="best" departSpeed="max" from="30015228#0" id="rs_c001_i000_639" to="38674844"/>
 <trip depart="400.0" departLane="best" departSpeed="max" from="-121411748#1" id="rs_c000_i000_4388" to="117654824#0"/>
 <trip depart="400.0" departLane="best" departSpeed="max" from="-208585109#0" id="rs_c000_i000_4416" to="60727164#1"/>
 <trip depart="402.0" departLane="best" departSpeed="max" from="-22604699#0" id="rs_c000_i000_4461" to="104147692"/>
 <trip depart="402.0" departLane="best" departSpeed="max" from="-122529096#7" id="rs_c000_i000_4462" to="26187755#0"/>
 <trip depart="402.0" departLane="best" departSpeed="max" from="-24399329" id="rs_c000_i000_4464" to="58423646"/>
 <trip depart="402.94" departLane="best" departSpeed="max" from="-30471451" id="rs_c000_i000_2648" to="60727164#1"/>
 <trip depart="403.12" departLane="best" departSpeed="max" from="-30471451" id="rs_c001_i000_210" to="61367454#1"/>
 <trip depart="404.0" departLane="best" departSpeed="max" from="-83488850" id="rs_c001_i000_769" to="234899446"/>
 <trip depart="406.0" departLane="best" departSpeed="max" from="-26040294#1" id="rs_c000_i000_4507" to="58423646"/>
 <trip depart="408.0" departLane="best" departSpeed="max" from="-61367419#0" id="rs_c000_i000_4524" to="24429380-AddedOffRampEdge"/>
 <trip depart="409.4" departLane="best" departSpeed="max" from="30471452#0" id="rs_c000_i000_413" to="5095206"/>
 <trip depart="414.0" departLane="best" departSpeed="max" from="95916459" id="rs_c000_i001_632" to="35062429#0"/>
 <trip depart="416.0" departLane="best" departSpeed="max" from="-95937728#1" id="rs_c000_i000_4052" to="144246396#1"/>
 <trip depart="416.0" departLane="best" departSpeed="max" from="-95212556" id="rs_c000_i000_4637" to="26187757#1"/>
 <trip depart="416.44" departLane="best" departSpeed="max" from="240100844#0" id="rs_c001_i000_441_part1" to="530282943"/>
 <trip depart="418.12" departLane="best" departSpeed="max" from="30471452#0" id="rs_c000_i000_242" to="234899446"/>
 <trip depart="422.2" departLane="best" departSpeed="max" from="35062276" id="rs_c000_i000_3918" to="362987791#0"/>
 <trip depart="423.0" departLane="best" departSpeed="max" from="631862806" id="rs_c001_i000_812" to="234899446"/>
 <trip depart="428.85" departLane="best" departSpeed="max" from="30471452#0" id="rs_c000_i000_178" to="-5095213"/>
 <trip depart="429.0" departLane="best" departSpeed="max" from="-26040294#1" id="rs_c000_i001_665" to="24399330#1"/>
 <trip depart="430.0" departLane="best" departSpeed="max" from="-83510232#0" id="rs_c001_i001_103" to="234899446"/>
 <trip depart="432.0" departLane="best" departSpeed="max" from="-24399330#0" id="rs_c000_i000_4812" to="58423646"/>
 <trip depart="432.39" departLane="best" departSpeed="max" from="-30471451" id="rs_c000_i000_2587" to="362987791#0"/>
 <trip depart="432.81" departLane="best" departSpeed="max" from="38674850" id="rs_c000_i001_44" to="38674844"/>
 <trip depart="433.0" departLane="best" departSpeed="max" from="118155456#0" id="rs_c000_i000_4816" to="58423646"/>
 <trip depart="437.0" departLane="best" departSpeed="max" from="118869284#0" id="rs_c001_i000_848" to="26187755#0"/>
 <trip depart="440.0" departLane="best" departSpeed="max" from="-26378768" id="rs_c000_i000_4908" to="34776006"/>
 <trip depart="440.52" departLane="best" departSpeed="max" from="240100844#0" id="rs_c000_i000_1814" to="530282943"/>
 <trip depart="442.0" departLane="best" departSpeed="max" from="-42792917#2" id="rs_c000_i001_688" to="25980639"/>
 <trip depart="446.09" departLane="best" departSpeed="max" from="35703215" id="rs_c000_i002_26" to="25980639"/>
 <trip depart="446.67" departLane="best" departSpeed="max" from="38674850" id="rs_c000_i000_104" to="38674844"/>
 <trip depart="448.0" departLane="best" departSpeed="max" from="-57078728" id="rs_c000_i000_4997" to="24429380-AddedOffRampEdge"/>
 <trip depart="450.0" departLane="best" departSpeed="max" from="-10357406#1" id="rs_c000_i000_5015" to="38674844"/>
 <trip depart="451.0" departLane="best" departSpeed="max" from="-10426171#0" id="rs_c001_i000_874" to="35062429#0"/>
 <trip depart="454.0" departLane="best" departSpeed="max" from="-61367451" id="rs_c001_i000_884" to="24429380-AddedOffRampEdge"/>
 <trip depart="455.0" departLane="best" departSpeed="max" from="24031456#6" id="rs_c001_i000_886" to="58423646"/>
 <trip depart="456.49" departLane="best" departSpeed="max" from="62059875#1" id="rs_c000_i000_137" to="34760663"/>
 <trip depart="457.0" departLane="best" departSpeed="max" from="-211208696#0" id="rs_c000_i000_4518" to="102332984#0"/>
 <trip depart="459.78" departLane="best" departSpeed="max" from="35703215" id="rs_c000_i000_1524" to="-1075684663#0"/>
 <trip depart="461.0" departLane="best" departSpeed="max" from="117624637#0" id="rs_c000_i000_5160" to="132793806"/>
 <trip depart="463.0" departLane="best" departSpeed="max" from="125828734" id="rs_c000_i001_677" to="60727164#1"/>
 <trip depart="464.0" departLane="best" departSpeed="max" from="-24399330#1" id="rs_c001_i000_766" to="58423646"/>
 <trip depart="465.0" departLane="best" departSpeed="max" from="-4232328" id="rs_c000_i000_5217" to="530282943"/>
 <trip depart="468.0" departLane="best" departSpeed="max" from="-301127378" id="rs_c000_i001_719" to="35062429#0"/>
 <trip depart="469.0" departLane="best" departSpeed="max" from="-286243201" id="rs_c000_i000_5258" to="25980639"/>
 <trip depart="471.6" departLane="best" departSpeed="max" from="30471452#0" id="rs_c000_i000_447" to="234899446"/>
 <trip depart="477.0" departLane="best" departSpeed="max" from="126140573#0" id="rs_c000_i000_5336" to="234899446"/>
 <trip depart="479.0" departLane="best" departSpeed="max" from="301503168#1" id="rs_c000_i000_3495" to="35061798"/>
 <trip depart="479.0" departLane="best" departSpeed="max" from="-26040356#1" id="rs_c001_i000_923" to="58423646"/>
 <trip depart="480.97" departLane="best" departSpeed="max" from="35703215" id="rs_c000_i000_3275" to="25980639"/>
 <trip depart="481.0" departLane="best" departSpeed="max" from="328253310#1" id="rs_c000_i000_5374" to="102332984#0"/>
 <trip depart="483.0" departLane="best" departSpeed="max" from="-122529094#9" id="rs_c000_i001_744" to="144246396#1"/>
 <trip depart="485.0" departLane="best" departSpeed="max" from="-147136167" id="rs_c001_i000_940" to="35062429#0"/>
 <trip depart="485.0" departLane="best" departSpeed="max" from="-83488868" id="rs_c000_i000_5410" to="234899446"/>
 <trip depart="487.32" departLane="best" departSpeed="max" from="-30471451" id="rs_c000_i000_4219" to="1081179231"/>
 <trip depart="491.0" departLane="best" departSpeed="max" from="-10426021#1" id="rs_c000_i001_754" to="35062429#0"/>
 <trip depart="492.52" departLane="best" departSpeed="max" from="62059875#1" id="rs_c000_i000_1835" to="34760663"/>
 <trip depart="496.0" departLane="best" departSpeed="max" from="125351110" id="rs_c000_i000_5538" to="144246396#1"/>
 <trip depart="497.14" departLane="best" departSpeed="max" from="38674850" id="rs_c001_i000_321" to="38674844"/>
 <trip depart="502.0" departLane="best" departSpeed="max" from="4226192#2" id="rs_c001_i000_968" to="234899446"/>
 <trip depart="506.0" departLane="best" departSpeed="max" from="-169313833#2" id="rs_c001_i000_977" to="144246396#1"/>
 <trip depart="506.25" departLane="best" departSpeed="max" from="30471452#0" id="rs_c000_i000_790" to="234899446"/>
 <trip depart="507.0" departLane="best" departSpeed="max" from="122529102#1" id="rs_c000_i000_5652" to="144246396#1"/>
 <trip depart="508.0" departLane="best" departSpeed="max" from="117099156#1" id="rs_c001_i000_982" to="58423646"/>
 <trip depart="509.0" departLane="best" departSpeed="max" from="4229427#2" id="rs_c000_i000_5668" to="234899446"/>
 <trip depart="510.0" departLane="best" departSpeed="max" from="-237367748#2" id="rs_c000_i000_5681" to="530282943"/>
 <trip depart="511.0" departLane="best" departSpeed="max" from="103302381" id="rs_c000_i001_764" to="234899446"/>
 <trip depart="511.0" departLane="best" departSpeed="max" from="61982178#0" id="rs_c000_i000_5693" to="24429380-AddedOffRampEdge"/>
 <trip depart="514.0" departLane="best" departSpeed="max" from="-95937728#1" id="rs_c000_i000_5054" to="144246396#1"/>
 <trip depart="515.0" departLane="best" departSpeed="max" from="-211120148" id="rs_c001_i000_706" to="35062429#0"/>
 <trip depart="527.0" departLane="best" departSpeed="max" from="26040294#0" id="rs_c001_i000_1014" to="58423646"/>
 <trip depart="528.15" departLane="best" departSpeed="max" from="38674850" id="rs_c000_i000_2282" to="839402626#1"/>
 <trip depart="529.0" departLane="best" departSpeed="max" from="118864084" id="rs_c000_i000_5890" to="26187757#1"/>
 <trip depart="529.0" departLane="best" departSpeed="max" from="-15242128#0" id="rs_c000_i001_809" to="38455846"/>
 <trip depart="531.0" departLane="best" departSpeed="max" from="-39071853" id="rs_c001_i000_1028" to="39139679"/>
 <trip depart="533.0" departLane="best" departSpeed="max" from="-26037066" id="rs_c000_i000_5926" to="24428921"/>
 <trip depart="539.06" departLane="best" departSpeed="max" from="30471452#0" id="rs_c000_i000_204" to="234899446"/>
 <trip depart="540.88" departLane="best" departSpeed="max" from="30471452#0" id="rs_c000_i000_1701" to="34948308"/>
 <trip depart="543.0" departLane="best" departSpeed="max" from="30326721" id="rs_c001_i000_1055" to="104147692"/>
 <trip depart="543.87" departLane="best" departSpeed="max" from="38674850" id="rs_c001_i000_83" to="237368116#1"/>
 <trip depart="544.0" departLane="best" departSpeed="max" from="4728026" id="rs_c001_i000_1056" to="35062429#0"/>
 <trip depart="544.0" departLane="best" departSpeed="max" from="61279838#1" id="rs_c001_i000_1057" to="30471451"/>
 <trip depart="545.87" departLane="best" departSpeed="max" from="38674850" id="rs_c001_i000_202" to="-79057002"/>
 <trip depart="546.0" departLane="best" departSpeed="max" from="-324741543" id="rs_c000_i000_6016" to="60727164#1"/>
 <trip depart="548.0" departLane="best" departSpeed="max" from="10558792" id="rs_c001_i000_1068" to="234899446"/>
 <trip depart="550.0" departLane="best" departSpeed="max" from="25600863" id="rs_c000_i000_965" to="24429380-AddedOffRampEdge"/>
 <trip depart="550.93" departLane="best" departSpeed="max" from="25600863" id="rs_c000_i001_169" to="24429380-AddedOffRampEdge"/>
 <trip depart="551.0" departLane="best" departSpeed="max" from="-211120148" id="rs_c000_i001_606" to="35062429#0"/>
 <trip depart="551.58" departLane="best" departSpeed="max" from="257423660#1" id="rs_c001_i000_643" to="104147692"/>
 <trip depart="554.0" departLane="best" departSpeed="max" from="211199291" id="rs_c001_i000_1082" to="530282943"/>
 <trip depart="557.0" departLane="best" departSpeed="max" from="53682403#2" id="rs_c000_i000_6191" to="138914231#0"/>
 <trip depart="565.0" departLane="best" departSpeed="max" from="51340803#1" id="rs_c001_i000_1079" to="35062429#0"/>
 <trip depart="568.0" departLane="best" departSpeed="max" from="62789947#1" id="rs_c000_i000_6308" to="25980639"/>
 <trip depart="571.0" departLane="best" departSpeed="max" from="301503168#1" id="rs_c000_i000_5706" to="35061798"/>
 <trip depart="571.0" departLane="best" departSpeed="max" from="-14571550#0" id="rs_c000_i000_6342" to="35062429#0"/>
 <trip depart="572.0" departLane="best" departSpeed="max" from="78535795" id="rs_c001_i000_1112" to="188891687"/>
 <trip depart="572.09" departLane="best" departSpeed="max" from="257423660#1" id="rs_c001_i000_746" to="104147692"/>
 <trip depart="573.0" departLane="best" departSpeed="max" from="51340803#1" id="rs_c001_i000_1095" to="35062429#0"/>
 <trip depart="576.0" departLane="best" departSpeed="max" from="78535771" id="rs_c000_i001_871" to="362987791#0"/>
 <trip depart="577.0" departLane="best" departSpeed="max" from="-16345605#1" id="rs_c001_i000_1124" to="35062429#0"/>
 <trip depart="583.16" departLane="best" departSpeed="max" from="30471452#0" id="rs_c000_i000_1123" to="61281939#1"/>
 <trip depart="585.23" departLane="best" departSpeed="max" from="30471452#0" id="rs_c000_i000_621" to="60727164#1"/>
 <trip depart="586.0" departLane="best" departSpeed="max" from="8102366#0" id="rs_c000_i000_6524" to="104147692"/>
 <trip depart="587.85" departLane="best" departSpeed="max" from="240100844#0" id="rs_c001_i000_831" to="530282943"/>
 <trip depart="588.0" departLane="best" departSpeed="max" from="-59683580#0" id="rs_c000_i000_6534" to="1081179231"/>
 <trip depart="588.24" departLane="best" departSpeed="max" from="-30471451" id="rs_c001_i001_121" to="60727164#1"/>
 <trip depart="589.0" departLane="best" departSpeed="max" from="-211208696#0" id="rs_c000_i000_5930" to="234899446"/>
 <trip depart="590.0" departLane="best" departSpeed="max" from="-62106322#0" id="rs_c000_i000_4158" to="25980639"/>
 <trip depart="590.62" departLane="best" departSpeed="max" from="25600863" id="rs_c000_i000_2404" to="24429380-AddedOffRampEdge"/>
 <trip depart="591.36" departLane="best" departSpeed="max" from="240100844#0" id="rs_c001_i000_499" to="530282943"/>
 <trip depart="593.0" departLane="best" departSpeed="max" from="-95937728#1" id="rs_c000_i000_5794" to="144246396#1"/>
 <trip depart="598.0" departLane="best" departSpeed="max" from="32461045#0" id="rs_c000_i000_6641_part0" to="-26341966#1"/>
 <trip depart="602.0" departLane="best" departSpeed="max" from="-14433921#1" id="rs_c000_i000_6687" to="38455846"/>
 <trip depart="603.0" departLane="best" departSpeed="max" from="-10374052" id="rs_c001_i000_1171" to="530282943"/>
 <trip depart="605.0" departLane="best" departSpeed="max" from="-30141086#0" id="rs_c000_i000_6718" to="38455846"/>
 <trip depart="606.56" departLane="best" departSpeed="max" from="38674850" id="rs_c001_i000_222" to="104147692"/>
 <trip depart="607.0" departLane="best" departSpeed="max" from="83163132" id="rs_c001_i001_142" to="234899446"/>
 <trip depart="607.5" departLane="best" departSpeed="max" from="38674850" id="rs_c000_i000_189" to="104147692"/>
 <trip depart="612.38" departLane="best" departSpeed="max" from="58097865" id="rs_c000_i000_3342" to="24429380-AddedOffRampEdge"/>
 <trip depart="615.0" departLane="best" departSpeed="max" from="83163119" id="rs_c001_i000_1187" to="234899446"/>
 <trip depart="620.0" departLane="best" departSpeed="max" from="26040355#2" id="rs_c000_i000_6889" to="58423646"/>
 <trip depart="621.04" departLane="best" departSpeed="max" from="30471452#0" id="rs_c000_i000_1653" to="10558745"/>
 <trip depart="622.08" departLane="best" departSpeed="max" from="30471452#0" id="rs_c000_i000_1659" to="60727164#1"/>
 <trip depart="623.0" departLane="best" departSpeed="max" from="-61491725" id="rs_c000_i000_6742" to="117654824#0"/>
 <trip depart="624.0" departLane="best" departSpeed="max" from="30471452#0" id="rs_c000_i000_3086" to="60727164#1"/>
 <trip depart="626.0" departLane="best" departSpeed="max" from="-60726625" id="rs_c000_i000_6947" to="29689099#0"/>
 <trip depart="627.34" departLane="best" departSpeed="max" from="58097865" id="rs_c000_i000_4644" to="24429380-AddedOffRampEdge"/>
 <trip depart="631.0" departLane="best" departSpeed="max" from="-4353778#3" id="rs_c001_i000_1215" to="58423646"/>
 <trip depart="634.0" departLane="best" departSpeed="max" from="220802775" id="rs_c001_i000_1223" to="58423646"/>
 <trip depart="636.0" departLane="best" departSpeed="max" from="-345608028" id="rs_c000_i000_7073" to="234899446"/>
 <trip depart="636.0" departLane="best" departSpeed="max" from="-61495638" id="rs_c000_i000_7076" to="24429380-AddedOffRampEdge"/>