<?xml version="1.0" encoding="utf-8"?>
<routes>
 <trip depart="1.0" departLane="best" departSpeed="max" from="321098632#1" id="rs_c001_i000_0" to="126140573#0"/>
 <trip depart="4.0" departLane="best" departSpeed="max" from="-38807023" id="rs_c000_i000_48" to="-210457775#1"/>
 <trip depart="5.0" departLane="best" departSpeed="max" from="-126709272#1" id="rs_c000_i000_57" to="126709272#1"/>
 <trip depart="13.0" departLane="best" departSpeed="max" from="-117654815#1" id="rs_c000_i000_148" to="-26295654#3"/>
 <trip depart="14.0" departLane="best" departSpeed="max" from="222307221#0" id="rs_c000_i000_151" to="222307221#1"/>
 <trip depart="17.0" departLane="best" departSpeed="max" from="-137996247" id="rs_c000_i000_194" to="-4353778#2"/>
 <trip depart="18.0" departLane="best" departSpeed="max" from="-63134322#1" id="rs_c001_i000_31" to="-51722317"/>
 <trip depart="20.0" departLane="best" departSpeed="max" from="-61367432" id="rs_c000_i000_245" to="-61281861"/>
 <trip depart="22.0" departLane="best" departSpeed="max" from="-45578880" id="rs_c000_i000_260" to="-4341507#0"/>
 <trip depart="23.0" departLane="best" departSpeed="max" from="-122529098#1" id="rs_c000_i000_277" to="4353778#0"/>
 <trip depart="24.0" departLane="best" departSpeed="max" from="219528064" id="rs_c001_i001_7" to="126449221#0"/>
 <trip depart="25.0" departLane="best" departSpeed="max" from="-122529110" id="rs_c000_i000_296" to="169313833#1"/>
 <trip depart="26.0" departLane="best" departSpeed="max" from="43263108" id="rs_c001_i000_42" to="-61367459"/>
 <trip depart="33.0" departLane="best" departSpeed="max" from="290255300" id="rs_c000_i000_384" to="136721679#2"/>
 <trip depart="34.0" departLane="best" departSpeed="max" from="1080298604" id="rs_c001_i000_68" to="26369517"/>
 <trip depart="35.0" departLane="best" departSpeed="max" from="35605874#2" id="rs_c000_i000_411" to="35605874#3"/>
 <trip depart="38.0" departLane="best" departSpeed="max" from="-62106322#0" id="rs_c000_i001_5_part1" to="-62106186#0"/>
 <trip depart="38.0" departLane="best" departSpeed="max" from="-5067354#1" id="rs_c000_i000_437" to="-5067354#0"/>
 <trip depart="40.0" departLane="best" departSpeed="max" from="-84639229#0" id="rs_c000_i000_455" to="83163106"/>
 <trip depart="41.0" departLane="best" departSpeed="max" from="4229427#1" id="rs_c001_i000_84" to="4229427#2"/>
 <trip depart="41.0" departLane="best" departSpeed="max" from="10557712" id="rs_c000_i000_475" to="-26367999"/>
 <trip depart="43.0" departLane="best" departSpeed="max" from="-122529102#1" id="rs_c001_i002_1" to="122529102#1"/>
 <trip depart="43.0" departLane="best" departSpeed="max" from="-95212556" id="rs_c000_i000_487" to="-96809695#2"/>
 <trip depart="47.0" departLane="best" departSpeed="max" from="-122529096#6" id="rs_c000_i000_529" to="-122529096#5"/>
 <trip depart="47.0" departLane="best" departSpeed="max" from="-136721671" id="rs_c000_i000_533" to="-132047178"/>
 <trip depart="48.0" departLane="best" departSpeed="max" from="-116049439#1" id="rs_c001_i000_104" to="-929213813"/>
 <trip depart="49.0" departLane="best" departSpeed="max" from="-286243203#1" id="rs_c000_i000_554" to="-286243203#0"/>
 <trip depart="51.0" departLane="best" departSpeed="max" from="51340803#1" id="rs_c001_i000_35" to="166533651"/>
 <trip depart="53.0" departLane="best" departSpeed="max" from="-188890214" id="rs_c000_i000_610" to="39297416"/>
 <trip depart="55.0" departLane="best" departSpeed="max" from="-61566225#0" id="rs_c000_i000_653" to="-61279838#0"/>
 <trip depart="56.0" departLane="best" departSpeed="max" from="4273624" id="rs_c000_i000_657" to="4273623"/>
 <trip depart="57.0" departLane="best" departSpeed="max" from="26369517" id="rs_c000_i001_73" to="704809565#0"/>
 <trip depart="57.0" departLane="best" departSpeed="max" from="61496433" id="rs_c000_i001_79" to="-61543316#0"/>
 <trip depart="57.0" departLane="best" departSpeed="max" from="-290255303#2" id="rs_c000_i001_81" to="-26165752#0"/>
 <trip depart="57.0" departLane="best" departSpeed="max" from="24031456#4" id="rs_c000_i000_681" to="24031456#5"/>
 <trip depart="58.0" departLane="best" departSpeed="max" from="-118155456#2" id="rs_c000_i000_685" to="118155452#0"/>
 <trip depart="58.0" departLane="best" departSpeed="max" from="-324738924" id="rs_c001_i000_127" to="76346323"/>
 <trip depart="60.0" departLane="best" departSpeed="max" from="-15242127#1" id="rs_c000_i000_711" to="26368656#1"/>
 <trip depart="61.0" departLane="best" departSpeed="max" from="47089824" id="rs_c000_i000_724" to="365469908"/>
 <trip depart="64.0" departLane="best" departSpeed="max" from="-4680630" id="rs_c001_i000_143" to="83496334"/>
 <trip depart="67.0" departLane="best" departSpeed="max" from="51340803#1" id="rs_c000_i000_444" to="166533651"/>
 <trip depart="67.0" departLane="best" departSpeed="max" from="-84017983" id="rs_c000_i001_97" to="-84656707#0"/>
 <trip depart="67.0" departLane="best" departSpeed="max" from="-83488868" id="rs_c001_i000_149" to="-83510232#0"/>
 <trip depart="69.0" departLane="best" departSpeed="max" from="-147136167" id="rs_c001_i000_155" to="-16345612#0"/>
 <trip depart="70.0" departLane="best" departSpeed="max" from="-32016029#2" id="rs_c001_i000_156_part0" to="-32016029#1"/>
 <trip depart="72.0" departLane="best" departSpeed="max" from="-14573382#2" id="rs_c000_i000_843" to="-14573382#1"/>
 <trip depart="74.0" departLane="best" departSpeed="max" from="-95100609" id="rs_c000_i000_864" to="-301145897"/>
 <trip depart="74.0" departLane="best" departSpeed="max" from="24487041" id="rs_c000_i000_865" to="217696286#1"/>
 <trip depart="75.0" departLane="best" departSpeed="max" from="-328253309#0" id="rs_c000_i001_110" to="126449315#0"/>
 <trip depart="75.0" departLane="best" departSpeed="max" from="-237367748#2" id="rs_c000_i000_879" to="4237991"/>
 <trip depart="76.0" departLane="best" departSpeed="max" from="-211208696#0" id="rs_c000_i001_20" to="-839402626#0"/>
 <trip depart="76.0" departLane="best" departSpeed="max" from="116049443#1" id="rs_c000_i000_504_part1" to="-122529094#8"/>
 <trip depart="76.0" departLane="best" departSpeed="max" from="26040294#1" id="rs_c000_i000_880" to="26040294#2"/>
 <trip depart="76.0" departLane="best" departSpeed="max" from="-10425858" id="rs_c000_i000_882" to="-14573382#1"/>
 <trip depart="76.0" departLane="best" departSpeed="max" from="117099159#2" id="rs_c000_i000_885" to="26085515#4"/>
 <trip depart="77.0" departLane="best" departSpeed="max" from="4226192#2" id="rs_c001_i000_161" to="26369585"/>
 <trip depart="78.0" departLane="best" departSpeed="max" from="8102541" id="rs_c000_i001_113" to="-61281861"/>
 <trip depart="78.0" departLane="best" departSpeed="max" from="-96809683#1" id="rs_c000_i000_912" to="-96809683#0"/>
 <trip depart="79.0" departLane="best" departSpeed="max" from="-211208696#0" id="rs_c000_i000_161" to="-839402626#0"/>
 <trip depart="79.0" departLane="best" departSpeed="max" from="-63322102#1" id="rs_c000_i000_918" to="-63322102#0"/>
 <trip depart="82.0" departLane="best" departSpeed="max" from="-5234278#1" id="rs_c000_i000_940" to="202342090#1"/>
 <trip depart="82.0" departLane="best" departSpeed="max" from="-136721672" id="rs_c000_i000_947" to="-852319713#0"/>
 <trip depart="84.0" departLane="best" departSpeed="max" from="-117654815#3" id="rs_c000_i001_120" to="-117654815#2"/>
 <trip depart="85.0" departLane="best" departSpeed="max" from="-188890214" id="rs_c000_i000_971" to="39297416"/>
 <trip depart="85.0" departLane="best" departSpeed="max" from="62789947#2" id="rs_c000_i000_975" to="-96945485"/>
 <trip depart="86.0" departLane="best" departSpeed="max" from="301503168#1" id="rs_c001_i000_69" to="24544213"/>
 <trip depart="86.0" departLane="best" departSpeed="max" from="4353778#0" id="rs_c000_i000_982" to="-57726375#2"/>
 <trip depart="86.0" departLane="best" departSpeed="max" from="83163114#1" id="rs_c000_i000_990" to="26367998#0"/>
 <trip depart="86.0" departLane="best" departSpeed="max" from="-30141086#0" id="rs_c001_i000_186" to="29712025#0"/>
 <trip depart="89.0" departLane="best" departSpeed="max" from="-24429416" id="rs_c000_i000_1016" to="86714180#1"/>
 <trip depart="89.0" departLane="best" departSpeed="max" from="26369585" id="rs_c001_i000_194" to="1080298604"/>
 <trip depart="91.0" departLane="best" departSpeed="max" from="183247520" id="rs_c000_i001_131" to="183247521#1"/>
 <trip depart="91.0" departLane="best" departSpeed="max" from="-85562446#0" id="rs_c001_i000_197" to="-84017983"/>
 <trip depart="92.0" departLane="best" departSpeed="max" from="-328266345" id="rs_c000_i000_1050" to="-126449197"/>
 <trip depart="92.0" departLane="best" departSpeed="max" from="-26127182#1" id="rs_c000_i000_1060" to="169313833#0"/>
 <trip depart="93.0" departLane="best" departSpeed="max" from="4643592" id="rs_c000_i001_133" to="-4643592"/>
 <trip depart="96.0" departLane="best" departSpeed="max" from="-14573382#2" id="rs_c001_i000_205" to="-14573382#1"/>
 <trip depart="98.0" departLane="best" departSpeed="max" from="-5234464" id="rs_c000_i000_1131" to="-30141086#0"/>
 <trip depart="98.0" departLane="best" departSpeed="max" from="-83497364" id="rs_c000_i000_1132" to="59603305#1"/>
 <trip depart="100.0" departLane="best" departSpeed="max" from="84017451#0" id="rs_c000_i000_1143" to="-84016143"/>
 <trip depart="100.0" departLane="best" departSpeed="max" from="-328813517" id="rs_c001_i000_213" to="-142497100#0"/>
 <trip depart="101.0" departLane="best" departSpeed="max" from="137996244#0" id="rs_c000_i000_1157" to="-122529114#1"/>
 <trip depart="105.0" departLane="best" departSpeed="max" from="-211208696#0" id="rs_c001_i000_103" to="-839402626#0"/>
 <trip depart="105.0" departLane="best" departSpeed="max" from="-301127377" id="rs_c000_i000_1200" to="-159761036#1"/>
 <trip depart="107.0" departLane="best" departSpeed="max" from="-34777320" id="rs_c000_i000_1213" to="-24399325#0"/>
 <trip depart="109.0" departLane="best" departSpeed="max" from="51340803#1" id="rs_c000_i001_146" to="166533651"/>
 <trip depart="111.0" departLane="best" departSpeed="max" from="-42902346#1" id="rs_c000_i000_1260" to="28918381#4"/>
 <trip depart="112.0" departLane="best" departSpeed="max" from="-95937728#1" id="rs_c000_i000_782_part1" to="-95937728#0"/>
 <trip depart="114.0" departLane="best" departSpeed="max" from="-38807023" id="rs_c000_i000_1298" to="-210457775#1"/>
 <trip depart="114.76" departLane="best" departSpeed="max" from="-30471451" id="rs_c000_i000_228_part1" to="30605198"/>
 <trip depart="118.0" departLane="best" departSpeed="max" from="-87397780" id="rs_c000_i000_1330" to="4250372"/>
 <trip depart="118.0" departLane="best" departSpeed="max" from="-136721667" id="rs_c000_i000_1338" to="-852319713#2"/>
 <trip depart="119.0" departLane="best" departSpeed="max" from="301503168#1" id="rs_c001_i000_113" to="24544213"/>
 <trip depart="120.0" departLane="best" departSpeed="max" from="-117643624" id="rs_c000_i000_1352" to="62106371#1"/>
 <trip depart="121.0" departLane="best" departSpeed="max" from="890973612" id="rs_c000_i000_1366" to="126449309"/>
 <trip depart="121.0" departLane="best" departSpeed="max" from="5091199" id="rs_c001_i000_246" to="62059875#1"/>
 <trip depart="123.0" departLane="best" departSpeed="max" from="126449231#0" id="rs_c001_i000_252" to="93670633#1"/>
 <trip depart="124.0" departLane="best" departSpeed="max" from="4244655" id="rs_c000_i000_1413" to="644345097"/>
 <trip depart="124.0" departLane="best" departSpeed="max" from="310738357" id="rs_c001_i000_253" to="96596615#1"/>
 <trip depart="125.0" departLane="best" departSpeed="max" from="5095190#0" id="rs_c000_i000_1423" to="-233171094#0"/>
 <trip depart="126.0" departLane="best" departSpeed="max" from="-95937728#1" id="rs_c000_i000_508" to="-95937728#0"/>
 <trip depart="127.0" departLane="best" departSpeed="max" from="136864086" id="rs_c000_i000_1442" to="-136864084#0"/>
 <trip depart="128.0" departLane="best" departSpeed="max" from="-118155453" id="rs_c000_i001_193" to="-34776023#0"/>
 <trip depart="129.0" departLane="best" departSpeed="max" from="-211120148" id="rs_c000_i001_179" to="-116049788#0"/>
 <trip depart="129.0" departLane="best" departSpeed="max" from="-39316011#1" id="rs_c000_i000_1471" to="149705105#1"/>
 <trip depart="130.0" departLane="best" departSpeed="max" from="-9604697" id="rs_c000_i000_1478" to="-8394848"/>
 <trip depart="131.0" departLane="best" departSpeed="max" from="-61371680#0" id="rs_c000_i000_1484" to="8102541"/>
 <trip depart="131.0" departLane="best" departSpeed="max" from="4353778#0" id="rs_c000_i000_1487" to="-57726375#2"/>
 <trip depart="133.0" departLane="best" departSpeed="max" from="-79690674#0" id="rs_c000_i002_6" to="30326560"/>
 <trip depart="134.0" departLane="best" departSpeed="max" from="-117099153" id="rs_c000_i000_1508" to="26040355#2"/>
 <trip depart="136.0" departLane="best" departSpeed="max" from="-95937728#1" id="rs_c000_i000_1112" to="-95937728#0"/>
 <trip depart="136.0" departLane="best" departSpeed="max" from="-10426171#1" id="rs_c000_i000_1528" to="-10426171#0"/>
 <trip depart="137.0" departLane="best" departSpeed="max" from="-314424813" id="rs_c000_i000_1534" to="-102282708#0"/>
 <trip depart="142.0" departLane="best" departSpeed="max" from="26085515#5" id="rs_c000_i000_1609" to="-117099133"/>
 <trip depart="143.0" departLane="best" departSpeed="max" from="-14994763" id="rs_c000_i000_1620" to="132817971"/>
 <trip depart="143.0" departLane="best" departSpeed="max" from="4492786" id="rs_c000_i000_1621" to="34178666"/>
 <trip depart="144.0" departLane="best" departSpeed="max" from="-24399325#0" id="rs_c000_i000_1607" to="-34776024"/>
 <trip depart="144.0" departLane="best" departSpeed="max" from="-51722315#0" id="rs_c001_i000_293" to="-51722317"/>
 <trip depart="145.0" departLane="best" departSpeed="max" from="285621683" id="rs_c000_i000_1638" to="285621686"/>
 <trip depart="145.0" departLane="best" departSpeed="max" from="889565311#1" id="rs_c000_i000_1639" to="83173307#1"/>
 <trip depart="145.0" departLane="best" departSpeed="max" from="-83510232#0" id="rs_c000_i001_218" to="-313656937"/>
 <trip depart="147.85" departLane="best" departSpeed="max" from="35062276" id="rs_c001_i000_25" to="97097111#1"/>
 <trip depart="149.0" departLane="best" departSpeed="max" from="-95937728#1" id="rs_c000_i000_253" to="-95937728#0"/>
 <trip depart="149.0" departLane="best" departSpeed="max" from="30529010#1" id="rs_c000_i001_219" to="-16345605#1"/>
 <trip depart="150.0" departLane="best" departSpeed="max" from="-217696289" id="rs_c000_i000_1702" to="245623696#3"/>
 <trip depart="151.0" departLane="best" departSpeed="max" from="-211120148" id="rs_c000_i001_114" to="-116049788#0"/>
 <trip depart="153.0" departLane="best" departSpeed="max" from="-79690674#0" id="rs_c001_i000_195" to="30326560"/>
 <trip depart="154.0" departLane="best" departSpeed="max" from="-95937943#2" id="rs_c000_i000_1419_part1" to="-95937943#1"/>
 <trip depart="155.98" departLane="best" departSpeed="max" from="35062276" id="rs_c001_i000_67" to="97097111#1"/>
 <trip depart="156.0" departLane="best" departSpeed="max" from="-28840232#0" id="rs_c000_i000_1756" to="26040355#6"/>
 <trip depart="160.0" departLane="best" departSpeed="max" from="-10502291#1" id="rs_c000_i001_240" to="18648957#0"/>
 <trip depart="164.0" departLane="best" departSpeed="max" from="-118869284#1" id="rs_c000_i000_1842" to="118869284#1"/>
 <trip depart="165.0" departLane="best" departSpeed="max" from="-234540368" id="rs_c000_i000_1853" to="234540367"/>
 <trip depart="165.0" departLane="best" departSpeed="max" from="-14433921#1" id="rs_c000_i000_1859" to="206172956"/>
 <trip depart="167.0" departLane="best" departSpeed="max" from="-61367449#0" id="rs_c001_i001_41" to="8102548"/>
 <trip depart="169.0" departLane="best" departSpeed="max" from="-328813517" id="rs_c001_i000_320" to="-142497100#0"/>
 <trip depart="169.0" departLane="best" departSpeed="max" from="125351183" id="rs_c001_i000_337" to="-297159795#0"/>
 <trip depart="169.0" departLane="best" departSpeed="max" from="-10357406#1" id="rs_c001_i000_338" to="30326722"/>
 <trip depart="170.0" departLane="best" departSpeed="max" from="136721678" id="rs_c000_i000_1908" to="58507979#0"/>
 <trip depart="170.7" departLane="best" departSpeed="max" from="-30471451" id="rs_c000_i001_157" to="30605198"/>
 <trip depart="171.0" departLane="best" departSpeed="max" from="462046218" id="rs_c001_i000_340" to="-30141086#0"/>
 <trip depart="172.0" departLane="best" departSpeed="max" from="5095197#1" id="rs_c000_i001_264" to="-62057884#0"/>
 <trip depart="173.0" departLane="best" departSpeed="max" from="-79690674#0" id="rs_c000_i000_895" to="30326560"/>
 <trip depart="174.0" departLane="best" departSpeed="max" from="-32016029#2" id="rs_c000_i000_1949" to="32461045#1"/>
 <trip depart="174.0" departLane="best" departSpeed="max" from="-10425858" id="rs_c000_i002_41" to="-14573382#1"/>
 <trip depart="175.0" departLane="best" departSpeed="max" from="-95937943#0" id="rs_c000_i000_1956" to="-34777320"/>
 <trip depart="176.0" departLane="best" departSpeed="max" from="-366308474" id="rs_c000_i000_1964" to="10558007#0"/>
 <trip depart="176.0" departLane="best" departSpeed="max" from="8102482" id="rs_c000_i000_1965" to="-81646465#1"/>
 <trip depart="177.0" departLane="best" departSpeed="max" from="142497097" id="rs_c000_i000_1978" to="312887979"/>
 <trip depart="178.0" departLane="best" departSpeed="max" from="-211120148" id="rs_c000_i000_1400" to="-116049788#0"/>
 <trip depart="178.63" departLane="best" departSpeed="max" from="-30471451" id="rs_c001_i000_46" to="30605198"/>
 <trip depart="181.0" departLane="best" departSpeed="max" from="118869284#0" id="rs_c000_i000_2018" to="118869284#1"/>
 <trip depart="185.0" departLane="best" departSpeed="max" from="5234587" id="rs_c001_i000_361" to="154150880#1"/>
 <trip depart="187.0" departLane="best" departSpeed="max" from="14571550#1" id="rs_c000_i002_46" to="15242125"/>
 <trip depart="188.0" departLane="best" departSpeed="max" from="-644345091#0" id="rs_c001_i000_292" to="707213265"/>
 <trip depart="188.0" departLane="best" departSpeed="max" from="-125589533" id="rs_c000_i000_2081" to="240100844#1"/>
 <trip depart="189.0" departLane="best" departSpeed="max" from="-118869284#1" id="rs_c000_i000_2091" to="122529094#4"/>
 <trip depart="193.0" departLane="best" departSpeed="max" from="-211208696#0" id="rs_c001_i000_276" to="-839402626#0"/>
 <trip depart="195.0" departLane="best" departSpeed="max" from="-10426011#1" id="rs_c000_i000_2147" to="166533654#1"/>
 <trip depart="196.0" departLane="best" departSpeed="max" from="285621686" id="rs_c000_i001_292" to="89891359"/>
 <trip depart="197.0" departLane="best" departSpeed="max" from="-59683236#1" id="rs_c000_i000_2163" to="-123037083"/>
 <trip depart="197.0" departLane="best" departSpeed="max" from="-87397780" id="rs_c000_i001_293" to="4250372"/>
 <trip depart="198.0" departLane="best" departSpeed="max" from="321098632#1" id="rs_c000_i000_2183" to="126140573#0"/>
 <trip depart="199.0" departLane="best" departSpeed="max" from="83163132" id="rs_c001_i000_380" to="4273624"/>
 <trip depart="200.0" departLane="best" departSpeed="max" from="-136721672" id="rs_c000_i000_2199" to="-852319713#0"/>
 <trip depart="201.0" departLane="best" departSpeed="max" from="-929213813" id="rs_c000_i000_2221" to="366616515"/>
 <trip depart="203.0" departLane="best" departSpeed="max" from="-16345605#0" id="rs_c001_i000_391" to="-16345612#0"/>
 <trip depart="203.0" departLane="best" departSpeed="max" from="-122529110" id="rs_c000_i000_2237" to="169313833#1"/>
 <trip depart="206.0" departLane="best" departSpeed="max" from="-4233644#2" id="rs_c000_i001_306" to="-224710092"/>
 <trip depart="207.0" departLane="best" departSpeed="max" from="-95937728#1" id="rs_c000_i000_698" to="-95937728#0"/>
 <trip depart="209.0" departLane="best" departSpeed="max" from="-211208696#0" id="rs_c000_i001_206" to="-839402626#0"/>
 <trip depart="209.0" departLane="best" departSpeed="max" from="-765843955" id="rs_c000_i000_2309" to="26959968#1"/>
 <trip depart="212.0" departLane="best" departSpeed="max" from="-136864084#1" id="rs_c001_i000_412" to="-136864084#0"/>
 <trip depart="212.0" departLane="best" departSpeed="max" from="-34149612#0" id="rs_c000_i000_2338" to="118155452#0"/>
 <trip depart="212.0" departLane="best" departSpeed="max" from="-26295654#3" id="rs_c000_i000_2344" to="98158885#2"/>
 <trip depart="213.0" departLane="best" departSpeed="max" from="-42792917#0" id="rs_c000_i000_2348" to="117656063#0"/>
 <trip depart="213.0" departLane="best" departSpeed="max" from="300981184#1" id="rs_c000_i000_2358" to="-4361529#0"/>
 <trip depart="214.0" departLane="best" departSpeed="max" from="-313693701" id="rs_c000_i000_2368" to="314250821"/>
 <trip depart="216.0" departLane="best" departSpeed="max" from="-116049442" id="rs_c000_i000_2391" to="222307221#0"/>
 <trip depart="217.0" departLane="best" departSpeed="max" from="10558745" id="rs_c000_i000_2397" to="39128352"/>
 <trip depart="218.0" departLane="best" departSpeed="max" from="183247520" id="rs_c001_i001_54" to="183247521#1"/>
 <trip depart="218.0" departLane="best" departSpeed="max" from="4680630" id="rs_c000_i000_2403" to="-83508584"/>
 <trip depart="219.0" departLane="best" departSpeed="max" from="-62106322#0" id="rs_c000_i000_376" to="-62106186#0"/>
 <trip depart="219.0" departLane="best" departSpeed="max" from="906802009" id="rs_c001_i000_425" to="94107470"/>
 <trip depart="220.0" departLane="best" departSpeed="max" from="-301127377" id="rs_c001_i000_429" to="-159761036#1"/>
 <trip depart="221.0" departLane="best" departSpeed="max" from="-8058345" id="rs_c001_i000_433" to="321098632#1"/>
 <trip depart="225.49" departLane="best" departSpeed="max" from="-30471451" id="rs_c001_i000_256" to="30605198"/>
 <trip depart="228.0" departLane="best" departSpeed="max" from="-95937728#1" id="rs_c000_i000_1362" to="-95937728#0"/>
 <trip depart="232.0" departLane="best" departSpeed="max" from="4229427#1" id="rs_c000_i000_2546" to="4229427#2"/>
 <trip depart="234.0" departLane="best" departSpeed="max" from="-61371685#0" id="rs_c000_i000_2581" to="-30326685#1"/>
 <trip depart="235.0" departLane="best" departSpeed="max" from="-4485415" id="rs_c001_i000_457" to="78535798#2"/>
 <trip depart="238.0" departLane="best" departSpeed="max" from="-27404368#1" id="rs_c001_i000_464" to="-27404368#0"/>
 <trip depart="238.0" departLane="best" departSpeed="max" from="78535798#0" id="rs_c000_i000_2617" to="78535798#2"/>
 <trip depart="238.0" departLane="best" departSpeed="max" from="-237837493#0" id="rs_c000_i000_2622" to="-314258297"/>
 <trip depart="241.0" departLane="best" departSpeed="max" from="-61495638" id="rs_c000_i000_2653" to="-75567703#1"/>
 <trip depart="241.0" departLane="best" departSpeed="max" from="-20179292#0" id="rs_c000_i000_2655" to="-211129670#0"/>
 <trip depart="242.0" departLane="best" departSpeed="max" from="-10426171#1" id="rs_c001_i000_473" to="-10426171#0"/>
 <trip depart="242.0" departLane="best" departSpeed="max" from="97097111#1" id="rs_c001_i001_59" to="96596623#1"/>
 <trip depart="242.0" departLane="best" departSpeed="max" from="8064520" id="rs_c000_i000_2658" to="83633194"/>
 <trip depart="243.0" departLane="best" departSpeed="max" from="169313833#0" id="rs_c000_i000_2668" to="169313833#1"/>
 <trip depart="243.03" departLane="best" departSpeed="max" from="62059875#1" id="rs_c001_i000_156_part1" to="62059875#2"/>
 <trip depart="244.0" departLane="best" departSpeed="max" from="-122529102#3" id="rs_c000_i001_364" to="122529094#1"/>
 <trip depart="246.0" departLane="best" departSpeed="max" from="-330415869" id="rs_c000_i000_2700" to="-5234278#1"/>
 <trip depart="247.0" departLane="best" departSpeed="max" from="35061795" id="rs_c001_i000_480" to="32262396#0"/>
 <trip depart="250.0" departLane="best" departSpeed="max" from="59699456" id="rs_c000_i000_2742" to="5234741"/>
 <trip depart="251.0" departLane="best" departSpeed="max" from="-10425883" id="rs_c000_i000_2756" to="-14573382#0"/>
 <trip depart="251.03" departLane="best" departSpeed="max" from="240100844#0" id="rs_c000_i000_295" to="240100844#1"/>
 <trip depart="252.0" departLane="best" departSpeed="max" from="84017451#1" id="rs_c001_i000_489" to="26368315"/>
 <trip depart="254.0" departLane="best" departSpeed="max" from="-61565968" id="rs_c001_i001_64" to="-61543316#1"/>
 <trip depart="255.0" departLane="best" departSpeed="max" from="34149613" id="rs_c000_i001_378" to="-34149612#0"/>
 <trip depart="259.0" departLane="best" departSpeed="max" from="95100622" id="rs_c000_i000_2851" to="220802775"/>
 <trip depart="259.0" departLane="best" departSpeed="max" from="-212694590" id="rs_c000_i000_2852" to="-26127182#2"/>
 <trip depart="259.8" departLane="best" departSpeed="max" from="-30471451" id="rs_c001_i000_172" to="30605198"/>
 <trip depart="260.0" departLane="best" departSpeed="max" from="-15242129#0" id="rs_c000_i001_391" to="-330415869"/>
 <trip depart="261.0" departLane="best" departSpeed="max" from="125351110" id="rs_c000_i000_2871" to="-122529096#3"/>
 <trip depart="261.0" departLane="best" departSpeed="max" from="-14573382#1" id="rs_c000_i001_392" to="-14573382#0"/>
 <trip depart="262.0" departLane="best" departSpeed="max" from="-136721679#0" id="rs_c000_i000_2889" to="290255303#1"/>
 <trip depart="263.0" departLane="best" departSpeed="max" from="301503168#1" id="rs_c000_i000_2206" to="24544213"/>
 <trip depart="265.0" departLane="best" departSpeed="max" from="-10372364#0" id="rs_c000_i001_402" to="328253309#1"/>
 <trip depart="266.0" departLane="best" departSpeed="max" from="-211120148" id="rs_c001_i000_370" to="-116049788#0"/>
 <trip depart="266.0" departLane="best" departSpeed="max" from="-212694591" id="rs_c000_i000_2921" to="122529094#2"/>
 <trip depart="267.0" departLane="best" departSpeed="max" from="-211129670#0" id="rs_c001_i000_506" to="-4232328"/>
 <trip depart="267.0" departLane="best" departSpeed="max" from="-290255303#2" id="rs_c000_i000_2943" to="-26165752#0"/>
 <trip depart="268.0" departLane="best" departSpeed="max" from="331540389#1" id="rs_c001_i000_507" to="232123266"/>
 <trip depart="268.0" departLane="best" departSpeed="max" from="-301127378" id="rs_c000_i000_2948" to="234956680"/>
 <trip depart="269.0" departLane="best" departSpeed="max" from="-22914198" id="rs_c000_i000_2965" to="-116049788#0"/>
 <trip depart="270.0" departLane="best" departSpeed="max" from="-79690674#0" id="rs_c000_i000_2876" to="30326560"/>
 <trip depart="270.0" departLane="best" departSpeed="max" from="-50044720#1" id="rs_c000_i001_409" to="-50044720#0"/>
 <trip depart="272.0" departLane="best" departSpeed="max" from="-95937728#1" id="rs_c000_i000_1946" to="-95937728#0"/>
 <trip depart="272.33" departLane="best" departSpeed="max" from="-30471451" id="rs_c000_i000_1810" to="30605198"/>
 <trip depart="273.0" departLane="best" departSpeed="max" from="73225130#1" id="rs_c001_i000_520" to="35772871"/>
 <trip depart="273.0" departLane="best" departSpeed="max" from="83506741" id="rs_c000_i000_3027" to="59601758"/>
 <trip depart="274.0" departLane="best" departSpeed="max" from="-95937728#1" id="rs_c000_i001_252" to="-95937728#0"/>
 <trip depart="274.51" departLane="best" departSpeed="max" from="-30471451" id="rs_c000_i001_196" to="30605198"/>
 <trip depart="274.87" departLane="best" departSpeed="max" from="-30471451" id="rs_c000_i000_605" to="30605198"/>
 <trip depart="275.0" departLane="best" departSpeed="max" from="-16345605#1" id="rs_c000_i000_3041" to="-16345605#0"/>
 <trip depart="277.78" departLane="best" departSpeed="max" from="240100844#0" id="rs_c001_i000_160" to="240100844#1"/>
 <trip depart="278.0" departLane="best" departSpeed="max" from="56253839" id="rs_c000_i000_3068" to="30098518"/>
 <trip depart="279.0" departLane="best" departSpeed="max" from="-233220919" id="rs_c000_i000_3097" to="-117643622"/>
 <trip depart="279.0" departLane="best" departSpeed="max" from="-16345605#0" id="rs_c000_i001_424" to="-16345612#0"/>
 <trip depart="280.0" departLane="best" departSpeed="max" from="301503168#1" id="rs_c000_i000_2410" to="24544213"/>
 <trip depart="281.0" departLane="best" departSpeed="max" from="51340803#1" id="rs_c000_i000_2577" to="166533651"/>
 <trip depart="281.0" departLane="best" departSpeed="max" from="-286404309" id="rs_c000_i001_426" to="-138037519"/>
 <trip depart="282.0" departLane="best" departSpeed="max" from="-95100609" id="rs_c000_i000_3122" to="-301145897"/>
 <trip depart="285.0" departLane="best" departSpeed="max" from="-301127378" id="rs_c000_i001_435" to="159761032#0"/>
 <trip depart="286.0" departLane="best" departSpeed="max" from="-32016029#3" id="rs_c001_i001_76" to="-32016029#2"/>
 <trip depart="288.57" departLane="best" departSpeed="max" from="38674850" id="rs_c000_i000_578" to="148927038"/>
 <trip depart="292.0" departLane="best" departSpeed="max" from="-211120148" id="rs_c000_i000_1433_part1" to="-116049788#0"/>
 <trip depart="292.0" departLane="best" departSpeed="max" from="35772871" id="rs_c001_i000_549" to="35772872"/>
 <trip depart="293.0" departLane="best" departSpeed="max" from="-24405231#0" id="rs_c001_i000_556" to="28918381#3"/>
 <trip depart="293.0" departLane="best" departSpeed="max" from="-224710093#0" id="rs_c000_i000_3232" to="-211129670#0"/>
 <trip depart="293.0" departLane="best" departSpeed="max" from="237386917#0" id="rs_c000_i000_3233" to="95916457"/>
 <trip depart="294.0" departLane="best" departSpeed="max" from="4229427#2" id="rs_c001_i000_561" to="26959968#3"/>
 <trip depart="295.0" departLane="best" departSpeed="max" from="4643592" id="rs_c000_i000_3244" to="-4643592"/>
 <trip depart="296.0" departLane="best" departSpeed="max" from="62059875#1" id="rs_c001_i000_51" to="62059875#2"/>