<?xml version="1.0" encoding="utf-8"?>
<routes>
 <trip depart="4.0" departLane="best" departSpeed="max" from="-38807023" id="rs_c000_i000_48" to="104147692"/>
 <trip depart="4.0" departLane="best" departSpeed="max" from="-26037066" id="rs_c000_i000_49" to="58423646"/>
 <trip depart="5.0" departLane="best" departSpeed="max" from="-126709272#1" id="rs_c000_i000_57" to="102332984#0"/>
 <trip depart="7.0" departLane="best" departSpeed="max" from="5231759" id="rs_c000_i000_81" to="29970080#0"/>
 <trip depart="8.0" departLane="best" departSpeed="max" from="-52673136" id="rs_c000_i000_105" to="24429380-AddedOffRampEdge"/>
 <trip depart="14.0" departLane="best" departSpeed="max" from="222307221#0" id="rs_c000_i000_151" to="58423646"/>
 <trip depart="18.0" departLane="best" departSpeed="max" from="26959985" id="rs_c000_i000_209" to="362987791#0"/>
 <trip depart="20.0" departLane="best" departSpeed="max" from="-61367432" id="rs_c000_i000_245" to="104147692"/>
 <trip depart="22.0" departLane="best" departSpeed="max" from="-45578880" id="rs_c000_i000_260" to="39139679"/>
 <trip depart="24.0" departLane="best" departSpeed="max" from="219528064" id="rs_c001_i001_7" to="234899446"/>
 <trip depart="26.0" departLane="best" departSpeed="max" from="43263108" id="rs_c001_i000_42" to="30471451"/>
 <trip depart="33.0" departLane="best" departSpeed="max" from="-369150317#0" id="rs_c000_i000_381" to="26187757#1"/>
 <trip depart="33.0" departLane="best" departSpeed="max" from="290255300" id="rs_c000_i000_384" to="58423646"/>
 <trip depart="34.0" departLane="best" departSpeed="max" from="1080298604" id="rs_c001_i000_68" to="234899446"/>
 <trip depart="35.0" departLane="best" departSpeed="max" from="35605874#2" id="rs_c000_i000_411" to="-61984348"/>
 <trip depart="43.0" departLane="best" departSpeed="max" from="-10426204#1" id="rs_c001_i000_90" to="35062429#0"/>
 <trip depart="47.0" departLane="best" departSpeed="max" from="-136721671" id="rs_c000_i000_533" to="58423646"/>
 <trip depart="48.0" departLane="best" departSpeed="max" from="-116049439#1" id="rs_c001_i000_104" to="26187757#1"/>
 <trip depart="49.0" departLane="best" departSpeed="max" from="-286243203#1" id="rs_c000_i000_554" to="24405134"/>
 <trip depart="53.0" departLane="best" departSpeed="max" from="-188890214" id="rs_c000_i000_610" to="28377479#0"/>
 <trip depart="55.0" departLane="best" departSpeed="max" from="-61566225#0" id="rs_c000_i000_653" to="30471451"/>
 <trip depart="56.0" departLane="best" departSpeed="max" from="4273624" id="rs_c000_i000_657" to="1081179231"/>
 <trip depart="57.0" departLane="best" departSpeed="max" from="26369517" id="rs_c000_i001_73" to="234899446"/>
 <trip depart="57.0" departLane="best" departSpeed="max" from="61496433" id="rs_c000_i001_79" to="28230831"/>
 <trip depart="57.0" departLane="best" departSpeed="max" from="-290255303#2" id="rs_c000_i001_81" to="26187757#1"/>
 <trip depart="57.0" departLane="best" departSpeed="max" from="462046218" id="rs_c000_i000_673" to="38455846"/>
 <trip depart="57.0" departLane="best" departSpeed="max" from="-84017983" id="rs_c000_i000_678" to="39139679"/>
 <trip depart="57.0" departLane="best" departSpeed="max" from="24031456#4" id="rs_c000_i000_681" to="58423646"/>
 <trip depart="58.0" departLane="best" departSpeed="max" from="-118155456#2" id="rs_c000_i000_685" to="26187757#1"/>
 <trip depart="61.0" departLane="best" departSpeed="max" from="47089824" id="rs_c000_i000_724" to="29970080#0"/>
 <trip depart="67.0" departLane="best" departSpeed="max" from="-83488868" id="rs_c001_i000_149" to="104147692"/>
 <trip depart="74.0" departLane="best" departSpeed="max" from="-95100609" id="rs_c000_i000_864" to="58423646"/>
 <trip depart="74.0" departLane="best" departSpeed="max" from="24487041" id="rs_c000_i000_865" to="-330920155"/>
 <trip depart="75.0" departLane="best" departSpeed="max" from="-237367748#2" id="rs_c000_i000_879" to="530282943"/>
 <trip depart="76.0" departLane="best" departSpeed="max" from="-211208696#0" id="rs_c000_i001_20" to="102332984#0"/>
 <trip depart="76.0" departLane="best" departSpeed="max" from="26040294#1" id="rs_c000_i000_880" to="58423646"/>
 <trip depart="76.0" departLane="best" departSpeed="max" from="-10425858" id="rs_c000_i000_882" to="139124541#0"/>
 <trip depart="77.0" departLane="best" departSpeed="max" from="4226192#2" id="rs_c001_i000_161" to="234899446"/>
 <trip depart="78.0" departLane="best" departSpeed="max" from="8102541" id="rs_c000_i001_113" to="38674844"/>
 <trip depart="78.0" departLane="best" departSpeed="max" from="87397777" id="rs_c000_i000_896" to="362987791#0"/>
 <trip depart="80.0" departLane="best" departSpeed="max" from="96915239#1" id="rs_c000_i000_928" to="58423646"/>
 <trip depart="81.0" departLane="best" departSpeed="max" from="51340803#1" id="rs_c000_i000_920" to="139124541#0"/>
 <trip depart="82.0" departLane="best" departSpeed="max" from="-5234278#1" id="rs_c000_i000_940" to="102332984#0"/>
 <trip depart="82.0" departLane="best" departSpeed="max" from="-136721672" id="rs_c000_i000_947" to="26187757#1"/>
 <trip depart="84.0" departLane="best" departSpeed="max" from="-117654815#3" id="rs_c000_i001_120" to="25980639"/>
 <trip depart="86.0" departLane="best" departSpeed="max" from="83163114#1" id="rs_c000_i000_990" to="39139679"/>
 <trip depart="86.0" departLane="best" departSpeed="max" from="-30141086#0" id="rs_c001_i000_186" to="38455846"/>
 <trip depart="89.0" departLane="best" departSpeed="max" from="26369585" id="rs_c001_i000_194" to="-61997814#0"/>
 <trip depart="91.0" departLane="best" departSpeed="max" from="-85562446#0" id="rs_c001_i000_197" to="39139679"/>
 <trip depart="92.0" departLane="best" departSpeed="max" from="-328266345" id="rs_c000_i000_1050" to="102332984#0"/>
 <trip depart="93.0" departLane="best" departSpeed="max" from="51340803#1" id="rs_c001_i000_189" to="35062429#0"/>
 <trip depart="93.0" departLane="best" departSpeed="max" from="4643592" id="rs_c000_i001_133" to="362987791#0"/>
 <trip depart="96.0" departLane="best" departSpeed="max" from="-14573382#2" id="rs_c001_i000_205" to="35062429#0"/>
 <trip depart="99.0" departLane="best" departSpeed="max" from="116049443#1" id="rs_c000_i000_532" to="26187755#0"/>
 <trip depart="100.0" departLane="best" departSpeed="max" from="-328813517" id="rs_c001_i000_213" to="104147692"/>
 <trip depart="103.0" departLane="best" departSpeed="max" from="-4361529#0" id="rs_c001_i002_4" to="24428921"/>
 <trip depart="105.0" departLane="best" departSpeed="max" from="-211208696#0" id="rs_c001_i000_103" to="234899446"/>
 <trip depart="107.0" departLane="best" departSpeed="max" from="83163097#1" id="rs_c001_i000_228" to="234899446"/>
 <trip depart="111.0" departLane="best" departSpeed="max" from="-42902346#1" id="rs_c000_i000_1260" to="24429380-AddedOffRampEdge"/>
 <trip depart="112.0" departLane="best" departSpeed="max" from="-95937728#1" id="rs_c000_i000_782_part1" to="144246396#1"/>
 <trip depart="114.0" departLane="best" departSpeed="max" from="-38807023" id="rs_c000_i000_1298" to="102332984#0"/>
 <trip depart="114.76" departLane="best" departSpeed="max" from="-30471451" id="rs_c000_i000_228_part1" to="60727164#1"/>
 <trip depart="118.0" departLane="best" departSpeed="max" from="-87397780" id="rs_c000_i000_1330" to="1081179231"/>
 <trip depart="119.0" departLane="best" departSpeed="max" from="301503168#1" id="rs_c001_i000_113" to="35061798"/>
 <trip depart="120.0" departLane="best" departSpeed="max" from="-117643624" id="rs_c000_i000_1352" to="25980639"/>
 <trip depart="121.0" departLane="best" departSpeed="max" from="26369585" id="rs_c000_i000_1361" to="102332984#0"/>
 <trip depart="121.0" departLane="best" departSpeed="max" from="5091199" id="rs_c001_i000_246" to="34760663"/>
 <trip depart="122.0" departLane="best" departSpeed="max" from="42793238#0" id="rs_c000_i000_1376" to="117654824#0"/>
 <trip depart="123.0" departLane="best" departSpeed="max" from="126449231#0" id="rs_c001_i000_252" to="234899446"/>
 <trip depart="124.0" departLane="best" departSpeed="max" from="-122529094#5" id="rs_c000_i000_1409" to="144246396#1"/>
 <trip depart="124.0" departLane="best" departSpeed="max" from="310738357" id="rs_c001_i000_253" to="1081179231"/>
 <trip depart="125.0" departLane="best" departSpeed="max" from="5095190#0" id="rs_c000_i000_1423" to="34760663"/>
 <trip depart="126.0" departLane="best" departSpeed="max" from="-95937728#1" id="rs_c000_i000_508" to="144246396#1"/>
 <trip depart="129.0" departLane="best" departSpeed="max" from="-211120148" id="rs_c000_i001_179" to="35062429#0"/>
 <trip depart="130.0" departLane="best" departSpeed="max" from="-9604697" id="rs_c000_i000_1478" to="-330920155"/>
 <trip depart="131.0" departLane="best" departSpeed="max" from="-61371680#0" id="rs_c000_i000_1484" to="104147692"/>
 <trip depart="133.0" departLane="best" departSpeed="max" from="-79690674#0" id="rs_c000_i002_6" to="34760663"/>
 <trip depart="134.0" departLane="best" departSpeed="max" from="-117099153" id="rs_c000_i000_1508" to="-117099159#0"/>
 <trip depart="136.0" departLane="best" departSpeed="max" from="-95937728#1" id="rs_c000_i000_1112" to="144246396#1"/>
 <trip depart="137.0" departLane="best" departSpeed="max" from="-314424813" id="rs_c000_i000_1534" to="104147692"/>
 <trip depart="141.0" departLane="best" departSpeed="max" from="-95937728#1" id="rs_c000_i000_1064" to="144246396#1"/>
 <trip depart="142.0" departLane="best" departSpeed="max" from="26085515#5" id="rs_c000_i000_1609" to="58423646"/>
 <trip depart="143.0" departLane="best" departSpeed="max" from="4492786" id="rs_c000_i000_1621" to="102332984#0"/>
 <trip depart="144.0" departLane="best" departSpeed="max" from="-24399325#0" id="rs_c000_i000_1607" to="24428921"/>
 <trip depart="144.0" departLane="best" departSpeed="max" from="-51722315#0" id="rs_c001_i000_293" to="117654824#0"/>
 <trip depart="145.0" departLane="best" departSpeed="max" from="-83510232#0" id="rs_c000_i001_218" to="234899446"/>
 <trip depart="147.85" departLane="best" departSpeed="max" from="35062276" id="rs_c001_i000_25" to="234899446"/>
 <trip depart="149.0" departLane="best" departSpeed="max" from="-95937728#1" id="rs_c000_i000_253" to="144246396#1"/>
 <trip depart="149.0" departLane="best" departSpeed="max" from="30529010#1" id="rs_c000_i001_219" to="116049788#1"/>
 <trip depart="150.0" departLane="best" departSpeed="max" from="-217696289" id="rs_c000_i000_1702" to="35062429#0"/>
 <trip depart="154.0" departLane="best" departSpeed="max" from="-95937943#2" id="rs_c000_i000_1419_part1" to="24428921"/>
 <trip depart="155.98" departLane="best" departSpeed="max" from="35062276" id="rs_c001_i000_67" to="60727164#1"/>
 <trip depart="156.0" departLane="best" departSpeed="max" from="-28840232#0" id="rs_c000_i000_1756" to="58423646"/>
 <trip depart="164.0" departLane="best" departSpeed="max" from="-335084841#0" id="rs_c000_i002_40" to="102332984#0"/>
 <trip depart="165.0" departLane="best" departSpeed="max" from="-234540368" id="rs_c000_i000_1853" to="38325510"/>
 <trip depart="165.0" departLane="best" departSpeed="max" from="-14433921#1" id="rs_c000_i000_1859" to="38455846"/>
 <trip depart="168.0" departLane="best" departSpeed="max" from="-211120148" id="rs_c001_i000_164" to="35062429#0"/>
 <trip depart="169.0" departLane="best" departSpeed="max" from="125351183" id="rs_c001_i000_337" to="26187755#0"/>
 <trip depart="169.0" departLane="best" departSpeed="max" from="-10357406#1" id="rs_c001_i000_338" to="38674844"/>
 <trip depart="171.0" departLane="best" departSpeed="max" from="462046218" id="rs_c001_i000_340" to="38455846"/>
 <trip depart="173.0" departLane="best" departSpeed="max" from="-79690674#0" id="rs_c000_i000_895" to="34760663"/>
 <trip depart="174.0" departLane="best" departSpeed="max" from="-32016029#2" id="rs_c000_i000_1949" to="104147692"/>
 <trip depart="174.0" departLane="best" departSpeed="max" from="-10425858" id="rs_c000_i002_41" to="139124541#0"/>
 <trip depart="175.0" departLane="best" departSpeed="max" from="-95937943#0" id="rs_c000_i000_1956" to="58423646"/>
 <trip depart="176.0" departLane="best" departSpeed="max" from="8102482" id="rs_c000_i000_1965" to="24429380-AddedOffRampEdge"/>
 <trip depart="178.0" departLane="best" departSpeed="max" from="-211120148" id="rs_c000_i000_1400" to="35062429#0"/>
 <trip depart="178.21" departLane="best" departSpeed="max" from="62059875#1" id="rs_c001_i000_138" to="138914231#0"/>
 <trip depart="187.0" departLane="best" departSpeed="max" from="14571550#1" id="rs_c000_i002_46" to="38455846"/>
 <trip depart="188.0" departLane="best" departSpeed="max" from="-644345091#0" id="rs_c001_i000_292" to="60727164#1"/>
 <trip depart="188.0" departLane="best" departSpeed="max" from="-125589533" id="rs_c000_i000_2081" to="530282943"/>
 <trip depart="193.0" departLane="best" departSpeed="max" from="-211208696#0" id="rs_c001_i000_276" to="234899446"/>
 <trip depart="196.0" departLane="best" departSpeed="max" from="285621686" id="rs_c000_i001_292" to="34760663"/>
 <trip depart="197.0" departLane="best" departSpeed="max" from="-59683236#1" id="rs_c000_i000_2163" to="58425043"/>
 <trip depart="197.0" departLane="best" departSpeed="max" from="-87397780" id="rs_c000_i001_293" to="1081179231"/>
 <trip depart="199.0" departLane="best" departSpeed="max" from="83163132" id="rs_c001_i000_380" to="234899446"/>
 <trip depart="200.0" departLane="best" departSpeed="max" from="-136721672" id="rs_c000_i000_2199" to="26187757#1"/>
 <trip depart="201.0" departLane="best" departSpeed="max" from="-929213813" id="rs_c000_i000_2221" to="58423646"/>
 <trip depart="203.0" departLane="best" departSpeed="max" from="-16345605#0" id="rs_c001_i000_391" to="35062429#0"/>
 <trip depart="203.0" departLane="best" departSpeed="max" from="462046218" id="rs_c000_i000_2238" to="38455846"/>
 <trip depart="207.0" departLane="best" departSpeed="max" from="-95937728#1" id="rs_c000_i000_698" to="144246396#1"/>
 <trip depart="210.0" departLane="best" departSpeed="max" from="-9604697" id="rs_c000_i000_2321" to="39139679"/>
 <trip depart="212.0" departLane="best" departSpeed="max" from="-136864084#1" id="rs_c001_i000_412" to="58423646"/>
 <trip depart="212.0" departLane="best" departSpeed="max" from="-34149612#0" id="rs_c000_i000_2338" to="58423646"/>
 <trip depart="212.0" departLane="best" departSpeed="max" from="-26295654#3" id="rs_c000_i000_2344" to="25980639"/>
 <trip depart="213.0" departLane="best" departSpeed="max" from="-42792917#0" id="rs_c000_i000_2348" to="24405134"/>
 <trip depart="213.0" departLane="best" departSpeed="max" from="300981184#1" id="rs_c000_i000_2358" to="104147692"/>
 <trip depart="214.0" departLane="best" departSpeed="max" from="-369150317#0" id="rs_c000_i000_2371" to="58423646"/>
 <trip depart="219.0" departLane="best" departSpeed="max" from="-62106322#0" id="rs_c000_i000_376" to="25980639"/>
 <trip depart="219.0" departLane="best" departSpeed="max" from="906802009" id="rs_c001_i000_425" to="234899446"/>
 <trip depart="219.0" departLane="best" departSpeed="max" from="-26165754#2" id="rs_c001_i000_427" to="58423646"/>
 <trip depart="220.0" departLane="best" departSpeed="max" from="-301127377" id="rs_c001_i000_429" to="39139679"/>
 <trip depart="221.0" departLane="best" departSpeed="max" from="-8058345" id="rs_c001_i000_433" to="362987791#0"/>
 <trip depart="224.0" departLane="best" departSpeed="max" from="-26127182#2" id="rs_c000_i000_2475" to="26187755#0"/>
 <trip depart="225.49" departLane="best" departSpeed="max" from="-30471451" id="rs_c001_i000_256" to="60727164#1"/>
 <trip depart="228.0" departLane="best" departSpeed="max" from="-95937728#1" id="rs_c000_i000_1362" to="144246396#1"/>
 <trip depart="232.0" departLane="best" departSpeed="max" from="4229427#1" id="rs_c000_i000_2546" to="362987791#0"/>
 <trip depart="232.0" departLane="best" departSpeed="max" from="-233171094#0" id="rs_c000_i000_2547" to="34760663"/>
 <trip depart="234.0" departLane="best" departSpeed="max" from="-306713165" id="rs_c000_i000_2568" to="38325510"/>
 <trip depart="234.0" departLane="best" departSpeed="max" from="-61371685#0" id="rs_c000_i000_2581" to="104147692"/>
 <trip depart="235.0" departLane="best" departSpeed="max" from="-4485415" id="rs_c001_i000_457" to="81646465#1"/>
 <trip depart="236.0" departLane="best" departSpeed="max" from="-211208696#0" id="rs_c000_i000_1809" to="102332984#0"/>
 <trip depart="238.0" departLane="best" departSpeed="max" from="-27404368#1" id="rs_c001_i000_464" to="30471451"/>
 <trip depart="238.0" departLane="best" departSpeed="max" from="78535798#0" id="rs_c000_i000_2617" to="60727164#1"/>
 <trip depart="238.0" departLane="best" departSpeed="max" from="-237837493#0" id="rs_c000_i000_2622" to="39139679"/>
 <trip depart="241.0" departLane="best" departSpeed="max" from="-20179292#0" id="rs_c000_i000_2655" to="530282943"/>
 <trip depart="242.0" departLane="best" departSpeed="max" from="97097111#1" id="rs_c001_i001_59" to="104147692"/>
 <trip depart="242.0" departLane="best" departSpeed="max" from="8064520" id="rs_c000_i000_2658" to="30471451"/>
 <trip depart="243.0" departLane="best" departSpeed="max" from="169313833#0" id="rs_c000_i000_2668" to="26187755#0"/>
 <trip depart="243.03" departLane="best" departSpeed="max" from="62059875#1" id="rs_c001_i000_156_part1" to="34760663"/>
 <trip depart="244.0" departLane="best" departSpeed="max" from="-122529102#3" id="rs_c000_i001_364" to="144246396#1"/>
 <trip depart="246.0" departLane="best" departSpeed="max" from="-330415869" id="rs_c000_i000_2700" to="38455846"/>
 <trip depart="247.0" departLane="best" departSpeed="max" from="35061795" id="rs_c001_i000_480" to="38325510"/>
 <trip depart="250.0" departLane="best" departSpeed="max" from="59699456" id="rs_c000_i000_2742" to="39139679"/>
 <trip depart="251.03" departLane="best" departSpeed="max" from="240100844#0" id="rs_c000_i000_295" to="530282943"/>
 <trip depart="252.0" departLane="best" departSpeed="max" from="84017451#1" id="rs_c001_i000_489" to="104147692"/>
 <trip depart="252.0" departLane="best" departSpeed="max" from="-62070348" id="rs_c001_i000_491" to="30326722"/>
 <trip depart="254.0" departLane="best" departSpeed="max" from="-61565968" id="rs_c001_i001_64" to="30326722"/>
 <trip depart="255.0" departLane="best" departSpeed="max" from="34149613" id="rs_c000_i001_378" to="26187757#1"/>
 <trip depart="259.0" departLane="best" departSpeed="max" from="95100622" id="rs_c000_i000_2851" to="26187757#1"/>
 <trip depart="259.0" departLane="best" departSpeed="max" from="-212694590" id="rs_c000_i000_2852" to="144246396#1"/>
 <trip depart="260.0" departLane="best" departSpeed="max" from="-15242129#0" id="rs_c000_i001_391" to="38455846"/>
 <trip depart="261.0" departLane="best" departSpeed="max" from="-14573382#1" id="rs_c000_i001_392" to="35062429#0"/>
 <trip depart="262.0" departLane="best" departSpeed="max" from="-136721679#0" id="rs_c000_i000_2889" to="26187757#1"/>
 <trip depart="262.0" departLane="best" departSpeed="max" from="-63134322#1" id="rs_c000_i001_400" to="25980639"/>
 <trip depart="263.0" departLane="best" departSpeed="max" from="301503168#1" id="rs_c000_i000_2206" to="35061798"/>
 <trip depart="265.0" departLane="best" departSpeed="max" from="-10372364#0" id="rs_c000_i001_402" to="102332984#0"/>
 <trip depart="266.0" departLane="best" departSpeed="max" from="-211120148" id="rs_c001_i000_370" to="35062429#0"/>
 <trip depart="267.0" departLane="best" departSpeed="max" from="166533654#1" id="rs_c000_i000_2936" to="139124541#0"/>
 <trip depart="268.0" departLane="best" departSpeed="max" from="331540389#1" id="rs_c001_i000_507" to="39139679"/>
 <trip depart="268.0" departLane="best" departSpeed="max" from="-301127378" id="rs_c000_i000_2948" to="26187757#1"/>
 <trip depart="269.0" departLane="best" departSpeed="max" from="98236882#1" id="rs_c001_i000_511" to="60727164#1"/>
 <trip depart="269.02" departLane="best" departSpeed="max" from="58097865" id="rs_c000_i000_709" to="24429380-AddedOffRampEdge"/>
 <trip depart="270.0" departLane="best" departSpeed="max" from="-79690674#0" id="rs_c000_i000_2876" to="30326722"/>
 <trip depart="272.0" departLane="best" departSpeed="max" from="-95937728#1" id="rs_c000_i000_1946" to="144246396#1"/>
 <trip depart="272.33" departLane="best" departSpeed="max" from="-30471451" id="rs_c000_i000_1810" to="362987791#0"/>
 <trip depart="273.0" departLane="best" departSpeed="max" from="73225130#1" id="rs_c001_i000_520" to="24429380-AddedOffRampEdge"/>
 <trip depart="273.0" departLane="best" departSpeed="max" from="83506741" id="rs_c000_i000_3027" to="60727164#1"/>
 <trip depart="274.51" departLane="best" departSpeed="max" from="-30471451" id="rs_c000_i001_196" to="60727164#1"/>
 <trip depart="274.87" departLane="best" departSpeed="max" from="-30471451" id="rs_c000_i000_605" to="362987791#0"/>
 <trip depart="275.0" departLane="best" departSpeed="max" from="-16345605#1" id="rs_c000_i000_3041" to="139124541#0"/>
 <trip depart="279.0" departLane="best" departSpeed="max" from="-233220919" id="rs_c000_i000_3097" to="138914231#0"/>
 <trip depart="279.0" departLane="best" departSpeed="max" from="-16345605#0" id="rs_c000_i001_424" to="139124541#0"/>
 <trip depart="280.0" departLane="best" departSpeed="max" from="301503168#1" id="rs_c000_i000_2410" to="35061798"/>
 <trip depart="281.0" departLane="best" departSpeed="max" from="-286404309" id="rs_c000_i001_426" to="58423646"/>
 <trip depart="282.0" departLane="best" departSpeed="max" from="-95100609" id="rs_c000_i000_3122" to="24428921"/>
 <trip depart="285.0" departLane="best" departSpeed="max" from="-301127378" id="rs_c000_i001_435" to="35062429#0"/>
 <trip depart="286.0" departLane="best" departSpeed="max" from="-32016029#3" id="rs_c001_i001_76" to="224710093#1"/>
 <trip depart="288.57" departLane="best" departSpeed="max" from="38674850" id="rs_c000_i000_578" to="38674844"/>
 <trip depart="292.0" departLane="best" departSpeed="max" from="-211120148" id="rs_c000_i000_1433_part1" to="35062429#0"/>
 <trip depart="293.0" departLane="best" departSpeed="max" from="-24405231#0" id="rs_c001_i000_556" to="28230831"/>
 <trip depart="293.0" departLane="best" departSpeed="max" from="-224710093#0" id="rs_c000_i000_3232" to="530282943"/>
 <trip depart="293.0" departLane="best" departSpeed="max" from="237386917#0" id="rs_c000_i000_3233" to="-330920155"/>
 <trip depart="295.0" departLane="best" departSpeed="max" from="4643592" id="rs_c000_i000_3244" to="234899446"/>
 <trip depart="296.0" departLane="best" departSpeed="max" from="62059875#1" id="rs_c001_i000_51" to="34760663"/>
 <trip depart="297.0" departLane="best" departSpeed="max" from="300981184#0" id="rs_c000_i000_3262" to="26187757#1"/>
 <trip depart="297.0" departLane="best" departSpeed="max" from="84656707#1" id="rs_c000_i000_3268" to="39139679"/>
 <trip depart="300.51" departLane="best" departSpeed="max" from="240100844#0" id="rs_c000_i001_171" to="530282943"/>
 <trip depart="302.0" departLane="best" departSpeed="max" from="-62106322#0" id="rs_c001_i000_145" to="138914231#0"/>
 <trip depart="303.0" departLane="best" departSpeed="max" from="-138350778#0" id="rs_c000_i000_3335" to="25980639"/>
 <trip depart="304.0" departLane="best" departSpeed="max" from="-79690674#0" id="rs_c000_i000_416" to="34760663"/>
 <trip depart="305.0" departLane="best" departSpeed="max" from="-26040356#1" id="rs_c000_i000_3360" to="58423646"/>
 <trip depart="305.0" departLane="best" departSpeed="max" from="35772871" id="rs_c000_i002_65" to="24429380-AddedOffRampEdge"/>
 <trip depart="306.0" departLane="best" departSpeed="max" from="-96700281" id="rs_c000_i000_3372" to="286340278"/>
 <trip depart="308.0" departLane="best" departSpeed="max" from="-95937728#1" id="rs_c000_i001_397" to="144246396#1"/>
 <trip depart="309.0" departLane="best" departSpeed="max" from="-126449297#1" id="rs_c000_i000_3399" to="362987791#0"/>
 <trip depart="311.0" departLane="best" departSpeed="max" from="-290255303#2" id="rs_c000_i000_3424" to="26187757#1"/>
 <trip depart="311.0" departLane="best" departSpeed="max" from="-122529096#6" id="rs_c000_i000_3427" to="26187755#0"/>
 <trip depart="313.0" departLane="best" departSpeed="max" from="-34776023#0" id="rs_c000_i001_484" to="26187757#1"/>
 <trip depart="314.0" departLane="best" departSpeed="max" from="349896687#1" id="rs_c000_i000_3457" to="1081179231"/>
 <trip depart="315.0" departLane="best" departSpeed="max" from="-14573382#2" id="rs_c000_i000_3463" to="139124541#0"/>
 <trip depart="315.0" departLane="best" departSpeed="max" from="-10425852" id="rs_c000_i001_487" to="35062429#0"/>
 <trip depart="316.0" departLane="best" departSpeed="max" from="-79690674#0" id="rs_c000_i001_296" to="25980639"/>
 <trip depart="316.0" departLane="best" departSpeed="max" from="-211208696#0" id="rs_c001_i000_417" to="24424238#0"/>
 <trip depart="318.0" departLane="best" departSpeed="max" from="84656707#1" id="rs_c000_i000_3508" to="39139679"/>
 <trip depart="320.27" departLane="best" departSpeed="max" from="257423660#1" id="rs_c001_i000_187" to="30471451"/>
 <trip depart="321.0" departLane="best" departSpeed="max" from="-95937728#1" id="rs_c000_i000_2701" to="144246396#1"/>
 <trip depart="321.0" departLane="best" departSpeed="max" from="-84017451#1" id="rs_c001_i000_609" to="35062429#0"/>
 <trip depart="323.0" departLane="best" departSpeed="max" from="24031456#0" id="rs_c000_i000_3564" to="24428921"/>
 <trip depart="323.0" departLane="best" departSpeed="max" from="-132047180" id="rs_c000_i000_3565" to="58423646"/>
 <trip depart="324.0" departLane="best" departSpeed="max" from="8394848" id="rs_c000_i001_502" to="35062429#0"/>
 <trip depart="324.26" departLane="best" departSpeed="max" from="35703215" id="rs_c000_i000_1724" to="-1075684663#0"/>
 <trip depart="325.0" departLane="best" departSpeed="max" from="188956290" id="rs_c000_i000_3587" to="60727164#1"/>
 <trip depart="327.0" departLane="best" departSpeed="max" from="191374712#1" id="rs_c001_i000_619" to="104147692"/>
 <trip depart="329.0" departLane="best" departSpeed="max" from="-20179292#0" id="rs_c000_i000_3634" to="530282943"/>
 <trip depart="331.37" departLane="best" departSpeed="max" from="-30471451" id="rs_c000_i000_1682" to="60727164#1"/>
 <trip depart="335.0" departLane="best" departSpeed="max" from="-101521565" id="rs_c000_i000_3685" to="117654824#0"/>
 <trip depart="338.0" departLane="best" departSpeed="max" from="56253839" id="rs_c001_i000_644" to="58425043"/>
 <trip depart="338.0" departLane="best" departSpeed="max" from="-15242128#0" id="rs_c000_i000_3720" to="38455846"/>
 <trip depart="342.0" departLane="best" departSpeed="max" from="-38336405#0" id="rs_c000_i000_3759" to="104147692"/>
 <trip depart="342.0" departLane="best" departSpeed="max" from="61367425#1" id="rs_c000_i000_3760" to="24429380-AddedOffRampEdge"/>
 <trip depart="342.0" departLane="best" departSpeed="max" from="-314426030#1" id="rs_c000_i000_3762" to="362987791#0"/>
 <trip depart="342.0" departLane="best" departSpeed="max" from="-314424813" id="rs_c000_i000_3765" to="362987791#0"/>
 <trip depart="344.0" departLane="best" departSpeed="max" from="183247520" id="rs_c000_i000_3761" to="116049788#1"/>
 <trip depart="346.0" departLane="best" departSpeed="max" from="-122529110" id="rs_c000_i000_3802" to="144246396#1"/>
 <trip depart="348.0" departLane="best" departSpeed="max" from="116049443#1" id="rs_c000_i000_3362" to="26187755#0"/>
 <trip depart="348.0" departLane="best" departSpeed="max" from="-122529101" id="rs_c001_i000_660" to="26187755#0"/>
 <trip depart="352.67" departLane="best" departSpeed="max" from="58097865" id="rs_c000_i000_1068" to="24429380-AddedOffRampEdge"/>
 <trip depart="353.0" departLane="best" departSpeed="max" from="-95937728#1" id="rs_c000_i000_2986" to="144246396#1"/>
 <trip depart="353.03" departLane="best" departSpeed="max" from="62059875#1" id="rs_c000_i000_665" to="34760663"/>
 <trip depart="354.0" departLane="best" departSpeed="max" from="-211120148" id="rs_c001_i000_475" to="35062429#0"/>
 <trip depart="354.0" departLane="best" departSpeed="max" from="-122529094#5" id="rs_c000_i000_3898" to="144246396#1"/>
 <trip depart="357.0" departLane="best" departSpeed="max" from="-81646465#1" id="rs_c000_i000_3926" to="35606385#0"/>
 <trip depart="358.0" departLane="best" departSpeed="max" from="86527638#1" id="rs_c000_i000_3936" to="1081179231"/>
 <trip depart="359.36" departLane="best" departSpeed="max" from="58097865" id="rs_c001_i000_363" to="104147692"/>
 <trip depart="363.0" departLane="best" departSpeed="max" from="-211120148" id="rs_c001_i000_523" to="35062429#0"/>
 <trip depart="363.0" departLane="best" departSpeed="max" from="-5230785" id="rs_c000_i000_3989" to="60727164#1"/>
 <trip depart="365.0" departLane="best" departSpeed="max" from="-95212556" id="rs_c000_i000_4007" to="58423646"/>
 <trip depart="366.0" departLane="best" departSpeed="max" from="-349902607#0" id="rs_c001_i000_693" to="30471451"/>
 <trip depart="366.0" departLane="best" departSpeed="max" from="-38281640#1" id="rs_c000_i000_4015" to="34760663"/>
 <trip depart="367.0" departLane="best" departSpeed="max" from="94107492" id="rs_c001_i000_696" to="234899446"/>
 <trip depart="368.0" departLane="best" departSpeed="max" from="138350778#1" id="rs_c000_i000_4035" to="117654824#0"/>
 <trip depart="368.0" departLane="best" departSpeed="max" from="4353778#1" id="rs_c000_i000_4037" to="58423646"/>
 <trip depart="368.0" departLane="best" departSpeed="max" from="-122529094#6" id="rs_c000_i001_567" to="26187755#0"/>
 <trip depart="370.0" departLane="best" departSpeed="max" from="301503276" id="rs_c000_i000_4067" to="35061798"/>
 <trip depart="372.24" departLane="best" departSpeed="max" from="-30471451" id="rs_c000_i000_2763" to="362987791#0"/>
 <trip depart="374.0" departLane="best" departSpeed="max" from="-30471451" id="rs_c000_i000_4092" to="234899446"/>
 <trip depart="375.04" departLane="best" departSpeed="max" from="38674850" id="rs_c000_i000_1921" to="38674844"/>