<?xml version="1.0" encoding="utf-8"?>
<routes>
 <trip depart="4.0" departLane="best" departSpeed="max" from="-38807023" id="rs_c000_i000_48" to="-210457775#1"/>
 <trip depart="5.0" departLane="best" departSpeed="max" from="-126709272#1" id="rs_c000_i000_57" to="126709272#1"/>
 <trip depart="7.0" departLane="best" departSpeed="max" from="5231759" id="rs_c000_i000_81" to="26368085"/>
 <trip depart="22.0" departLane="best" departSpeed="max" from="-45578880" id="rs_c000_i000_260" to="-4341507#0"/>
 <trip depart="23.0" departLane="best" departSpeed="max" from="-122529098#1" id="rs_c000_i000_277" to="4353778#0"/>
 <trip depart="24.0" departLane="best" departSpeed="max" from="219528064" id="rs_c001_i001_7" to="126449221#0"/>
 <trip depart="24.0" departLane="best" departSpeed="max" from="-117643614#1" id="rs_c000_i001_32" to="-117643614#0"/>
 <trip depart="25.0" departLane="best" departSpeed="max" from="-122529110" id="rs_c000_i000_296" to="169313833#1"/>
 <trip depart="26.0" departLane="best" departSpeed="max" from="43263108" id="rs_c001_i000_42" to="-61367459"/>
 <trip depart="33.0" departLane="best" departSpeed="max" from="290255300" id="rs_c000_i000_384" to="136721679#2"/>
 <trip depart="34.0" departLane="best" departSpeed="max" from="1080298604" id="rs_c001_i000_68" to="26369517"/>
 <trip depart="38.0" departLane="best" departSpeed="max" from="-62106322#0" id="rs_c000_i001_5_part1" to="-62106186#0"/>
 <trip depart="40.0" departLane="best" departSpeed="max" from="-84639229#0" id="rs_c000_i000_455" to="83163106"/>
 <trip depart="41.0" departLane="best" departSpeed="max" from="4229427#1" id="rs_c001_i000_84" to="4229427#2"/>
 <trip depart="43.0" departLane="best" departSpeed="max" from="-95212556" id="rs_c000_i000_487" to="-96809695#2"/>
 <trip depart="47.0" departLane="best" departSpeed="max" from="-122529096#6" id="rs_c000_i000_529" to="-122529096#5"/>
 <trip depart="51.0" departLane="best" departSpeed="max" from="-61997814#0" id="rs_c000_i000_584" to="-233171094#0"/>
 <trip depart="53.0" departLane="best" departSpeed="max" from="30326559" id="rs_c000_i000_612" to="30326560"/>
 <trip depart="57.0" departLane="best" departSpeed="max" from="61496433" id="rs_c000_i001_79" to="-61543316#0"/>
 <trip depart="57.0" departLane="best" departSpeed="max" from="462046218" id="rs_c000_i000_673" to="-30141086#0"/>
 <trip depart="57.0" departLane="best" departSpeed="max" from="-84017983" id="rs_c000_i000_678" to="84656707#1"/>
 <trip depart="57.0" departLane="best" departSpeed="max" from="24031456#4" id="rs_c000_i000_681" to="24031456#5"/>
 <trip depart="58.0" departLane="best" departSpeed="max" from="-118155456#2" id="rs_c000_i000_685" to="118155452#0"/>
 <trip depart="60.0" departLane="best" departSpeed="max" from="-15242127#1" id="rs_c000_i000_711" to="26368656#1"/>
 <trip depart="67.0" departLane="best" departSpeed="max" from="-84017983" id="rs_c000_i001_97" to="-84656707#0"/>
 <trip depart="67.0" departLane="best" departSpeed="max" from="-83488868" id="rs_c001_i000_149" to="-83510232#0"/>
 <trip depart="72.0" departLane="best" departSpeed="max" from="-14573382#2" id="rs_c000_i000_843" to="-14573382#1"/>
 <trip depart="75.0" departLane="best" departSpeed="max" from="-328253309#0" id="rs_c000_i001_110" to="126449315#0"/>
 <trip depart="76.0" departLane="best" departSpeed="max" from="116049443#1" id="rs_c000_i000_504_part1" to="-122529094#8"/>
 <trip depart="76.0" departLane="best" departSpeed="max" from="117099159#2" id="rs_c000_i000_885" to="26085515#4"/>
 <trip depart="77.0" departLane="best" departSpeed="max" from="4226192#2" id="rs_c001_i000_161" to="26369585"/>
 <trip depart="78.0" departLane="best" departSpeed="max" from="87397777" id="rs_c000_i000_896" to="4250372"/>
 <trip depart="78.0" departLane="best" departSpeed="max" from="-96809683#1" id="rs_c000_i000_912" to="-96809683#0"/>
 <trip depart="79.0" departLane="best" departSpeed="max" from="-63322102#1" id="rs_c000_i000_918" to="-63322102#0"/>
 <trip depart="81.0" departLane="best" departSpeed="max" from="51340803#1" id="rs_c000_i000_920" to="166533651"/>
 <trip depart="82.0" departLane="best" departSpeed="max" from="-5234278#1" id="rs_c000_i000_940" to="202342090#1"/>
 <trip depart="85.0" departLane="best" departSpeed="max" from="-188890214" id="rs_c000_i000_971" to="39297416"/>
 <trip depart="89.0" departLane="best" departSpeed="max" from="-24429416" id="rs_c000_i000_1016" to="86714180#1"/>
 <trip depart="91.0" departLane="best" departSpeed="max" from="51340803#1" id="rs_c001_i000_59" to="166533651"/>
 <trip depart="91.0" departLane="best" departSpeed="max" from="183247520" id="rs_c000_i001_131" to="183247521#1"/>
 <trip depart="92.0" departLane="best" departSpeed="max" from="-328266345" id="rs_c000_i000_1050" to="-126449197"/>
 <trip depart="93.0" departLane="best" departSpeed="max" from="51340803#1" id="rs_c001_i000_189" to="166533651"/>
 <trip depart="93.0" departLane="best" departSpeed="max" from="4643592" id="rs_c000_i001_133" to="-4643592"/>
 <trip depart="99.0" departLane="best" departSpeed="max" from="116049443#1" id="rs_c000_i000_532" to="-122529094#8"/>
 <trip depart="100.0" departLane="best" departSpeed="max" from="84017451#0" id="rs_c000_i000_1143" to="-84016143"/>
 <trip depart="101.0" departLane="best" departSpeed="max" from="137996244#0" id="rs_c000_i000_1157" to="-122529114#1"/>
 <trip depart="107.0" departLane="best" departSpeed="max" from="-34777320" id="rs_c000_i000_1213" to="-24399325#0"/>
 <trip depart="112.0" departLane="best" departSpeed="max" from="-95937728#1" id="rs_c000_i000_782_part1" to="-95937728#0"/>
 <trip depart="118.0" departLane="best" departSpeed="max" from="-136721667" id="rs_c000_i000_1338" to="-852319713#2"/>
 <trip depart="120.0" departLane="best" departSpeed="max" from="-117643624" id="rs_c000_i000_1352" to="62106371#1"/>
 <trip depart="123.0" departLane="best" departSpeed="max" from="126449231#0" id="rs_c001_i000_252" to="93670633#1"/>
 <trip depart="124.0" departLane="best" departSpeed="max" from="4244655" id="rs_c000_i000_1413" to="644345097"/>
 <trip depart="124.0" departLane="best" departSpeed="max" from="310738357" id="rs_c001_i000_253" to="96596615#1"/>
 <trip depart="125.0" departLane="best" departSpeed="max" from="5095190#0" id="rs_c000_i000_1423" to="-233171094#0"/>
 <trip depart="126.0" departLane="best" departSpeed="max" from="-95937728#1" id="rs_c000_i000_508" to="-95937728#0"/>
 <trip depart="127.0" departLane="best" departSpeed="max" from="136864086" id="rs_c000_i000_1442" to="-136864084#0"/>
 <trip depart="129.0" departLane="best" departSpeed="max" from="-211120148" id="rs_c000_i001_179" to="-116049788#0"/>
 <trip depart="130.0" departLane="best" departSpeed="max" from="-9604697" id="rs_c000_i000_1478" to="-8394848"/>
 <trip depart="131.0" departLane="best" departSpeed="max" from="4353778#0" id="rs_c000_i000_1487" to="-57726375#2"/>
 <trip depart="136.0" departLane="best" departSpeed="max" from="-95937728#1" id="rs_c000_i000_1112" to="-95937728#0"/>
 <trip depart="137.0" departLane="best" departSpeed="max" from="-314424813" id="rs_c000_i000_1534" to="-102282708#0"/>
 <trip depart="141.0" departLane="best" departSpeed="max" from="-95937728#1" id="rs_c000_i000_1064" to="-95937728#0"/>
 <trip depart="142.0" departLane="best" departSpeed="max" from="26085515#5" id="rs_c000_i000_1609" to="-117099133"/>
 <trip depart="143.0" departLane="best" departSpeed="max" from="-14994763" id="rs_c000_i000_1620" to="132817971"/>
 <trip depart="143.0" departLane="best" departSpeed="max" from="4492786" id="rs_c000_i000_1621" to="34178666"/>
 <trip depart="145.0" departLane="best" departSpeed="max" from="285621683" id="rs_c000_i000_1638" to="285621686"/>
 <trip depart="145.0" departLane="best" departSpeed="max" from="-83510232#0" id="rs_c000_i001_218" to="-313656937"/>
 <trip depart="148.0" departLane="best" departSpeed="max" from="137996244#0" id="rs_c000_i000_1675" to="122529114#2"/>
 <trip depart="149.0" departLane="best" departSpeed="max" from="30529010#1" id="rs_c000_i001_219" to="-16345605#1"/>
 <trip depart="150.0" departLane="best" departSpeed="max" from="-217696289" id="rs_c000_i000_1702" to="245623696#3"/>
 <trip depart="151.0" departLane="best" departSpeed="max" from="-211120148" id="rs_c000_i001_114" to="-116049788#0"/>
 <trip depart="153.0" departLane="best" departSpeed="max" from="-79690674#0" id="rs_c001_i000_195" to="30326560"/>
 <trip depart="154.0" departLane="best" departSpeed="max" from="-95937943#2" id="rs_c000_i000_1419_part1" to="-95937943#1"/>
 <trip depart="155.98" departLane="best" departSpeed="max" from="35062276" id="rs_c001_i000_67" to="97097111#1"/>
 <trip depart="164.0" departLane="best" departSpeed="max" from="-118869284#1" id="rs_c000_i000_1842" to="118869284#1"/>
 <trip depart="165.0" departLane="best" departSpeed="max" from="-14433921#1" id="rs_c000_i000_1859" to="206172956"/>
 <trip depart="167.0" departLane="best" departSpeed="max" from="-61367449#0" id="rs_c001_i001_41" to="8102548"/>
 <trip depart="168.0" departLane="best" departSpeed="max" from="-211120148" id="rs_c001_i000_164" to="-116049788#0"/>
 <trip depart="169.0" departLane="best" departSpeed="max" from="-328813517" id="rs_c001_i000_320" to="-142497100#0"/>
 <trip depart="169.0" departLane="best" departSpeed="max" from="125351183" id="rs_c001_i000_337" to="-297159795#0"/>
 <trip depart="170.0" departLane="best" departSpeed="max" from="136721678" id="rs_c000_i000_1908" to="58507979#0"/>
 <trip depart="176.0" departLane="best" departSpeed="max" from="-366308474" id="rs_c000_i000_1964" to="10558007#0"/>
 <trip depart="177.0" departLane="best" departSpeed="max" from="142497097" id="rs_c000_i000_1978" to="312887979"/>
 <trip depart="178.0" departLane="best" departSpeed="max" from="-211120148" id="rs_c000_i000_1400" to="-116049788#0"/>
 <trip depart="178.63" departLane="best" departSpeed="max" from="-30471451" id="rs_c001_i000_46" to="30605198"/>
 <trip depart="181.0" departLane="best" departSpeed="max" from="118869284#0" id="rs_c000_i000_2018" to="118869284#1"/>
 <trip depart="187.0" departLane="best" departSpeed="max" from="14571550#1" id="rs_c000_i002_46" to="15242125"/>
 <trip depart="188.0" departLane="best" departSpeed="max" from="-125589533" id="rs_c000_i000_2081" to="240100844#1"/>
 <trip depart="193.0" departLane="best" departSpeed="max" from="-211208696#0" id="rs_c001_i000_276" to="-839402626#0"/>
 <trip depart="195.0" departLane="best" departSpeed="max" from="-10426011#1" id="rs_c000_i000_2147" to="166533654#1"/>
 <trip depart="196.0" departLane="best" departSpeed="max" from="285621686" id="rs_c000_i001_292" to="89891359"/>
 <trip depart="199.0" departLane="best" departSpeed="max" from="83163132" id="rs_c001_i000_380" to="4273624"/>
 <trip depart="203.0" departLane="best" departSpeed="max" from="-16345605#0" id="rs_c001_i000_391" to="-16345612#0"/>
 <trip depart="206.0" departLane="best" departSpeed="max" from="-4233644#2" id="rs_c000_i001_306" to="-224710092"/>
 <trip depart="209.0" departLane="best" departSpeed="max" from="-765843955" id="rs_c000_i000_2309" to="26959968#1"/>
 <trip depart="214.0" departLane="best" departSpeed="max" from="-369150317#0" id="rs_c000_i000_2371" to="-132047178"/>
 <trip depart="218.0" departLane="best" departSpeed="max" from="4680630" id="rs_c000_i000_2403" to="-83508584"/>
 <trip depart="219.0" departLane="best" departSpeed="max" from="-62106322#0" id="rs_c000_i000_376" to="-62106186#0"/>
 <trip depart="219.0" departLane="best" departSpeed="max" from="906802009" id="rs_c001_i000_425" to="94107470"/>
 <trip depart="221.0" departLane="best" departSpeed="max" from="-8058345" id="rs_c001_i000_433" to="321098632#1"/>
 <trip depart="224.0" departLane="best" departSpeed="max" from="-26127182#2" id="rs_c000_i000_2475" to="-26127182#1"/>
 <trip depart="232.0" departLane="best" departSpeed="max" from="-233171094#0" id="rs_c000_i000_2547" to="-5095173"/>
 <trip depart="235.0" departLane="best" departSpeed="max" from="-4485415" id="rs_c001_i000_457" to="78535798#2"/>
 <trip depart="236.0" departLane="best" departSpeed="max" from="-211208696#0" id="rs_c000_i000_1809" to="-839402626#0"/>
 <trip depart="238.0" departLane="best" departSpeed="max" from="117099147#0" id="rs_c000_i000_2613" to="-24399329"/>
 <trip depart="238.0" departLane="best" departSpeed="max" from="78535798#0" id="rs_c000_i000_2617" to="78535798#2"/>
 <trip depart="241.0" departLane="best" departSpeed="max" from="-61495638" id="rs_c000_i000_2653" to="-75567703#1"/>
 <trip depart="241.0" departLane="best" departSpeed="max" from="-20179292#0" id="rs_c000_i000_2655" to="-211129670#0"/>
 <trip depart="242.0" departLane="best" departSpeed="max" from="97097111#1" id="rs_c001_i001_59" to="96596623#1"/>
 <trip depart="243.0" departLane="best" departSpeed="max" from="169313833#0" id="rs_c000_i000_2668" to="169313833#1"/>
 <trip depart="243.03" departLane="best" departSpeed="max" from="62059875#1" id="rs_c001_i000_156_part1" to="62059875#2"/>
 <trip depart="244.0" departLane="best" departSpeed="max" from="-122529102#3" id="rs_c000_i001_364" to="122529094#1"/>
 <trip depart="247.0" departLane="best" departSpeed="max" from="35061795" id="rs_c001_i000_480" to="32262396#0"/>
 <trip depart="251.0" departLane="best" departSpeed="max" from="-10425883" id="rs_c000_i000_2756" to="-14573382#0"/>
 <trip depart="251.03" departLane="best" departSpeed="max" from="240100844#0" id="rs_c000_i000_295" to="240100844#1"/>
 <trip depart="259.0" departLane="best" departSpeed="max" from="-212694590" id="rs_c000_i000_2852" to="-26127182#2"/>
 <trip depart="260.0" departLane="best" departSpeed="max" from="-15242129#0" id="rs_c000_i001_391" to="-330415869"/>
 <trip depart="261.0" departLane="best" departSpeed="max" from="-14573382#1" id="rs_c000_i001_392" to="-14573382#0"/>
 <trip depart="262.0" departLane="best" departSpeed="max" from="-136721679#0" id="rs_c000_i000_2889" to="290255303#1"/>
 <trip depart="262.0" departLane="best" departSpeed="max" from="-63134322#1" id="rs_c000_i001_400" to="-51722317"/>
 <trip depart="266.0" departLane="best" departSpeed="max" from="-212694591" id="rs_c000_i000_2921" to="122529094#2"/>
 <trip depart="267.0" departLane="best" departSpeed="max" from="166533654#1" id="rs_c000_i000_2936" to="30529010#1"/>
 <trip depart="267.0" departLane="best" departSpeed="max" from="-290255303#2" id="rs_c000_i000_2943" to="-26165752#0"/>
 <trip depart="268.0" departLane="best" departSpeed="max" from="331540389#1" id="rs_c001_i000_507" to="232123266"/>
 <trip depart="270.0" departLane="best" departSpeed="max" from="-79690674#0" id="rs_c000_i000_2876" to="30326560"/>
 <trip depart="272.0" departLane="best" departSpeed="max" from="-95937728#1" id="rs_c000_i000_1946" to="-95937728#0"/>
 <trip depart="273.0" departLane="best" departSpeed="max" from="73225130#1" id="rs_c001_i000_520" to="35772871"/>
 <trip depart="274.0" departLane="best" departSpeed="max" from="-95937728#1" id="rs_c000_i001_252" to="-95937728#0"/>
 <trip depart="274.51" departLane="best" departSpeed="max" from="-30471451" id="rs_c000_i001_196" to="30605198"/>
 <trip depart="280.0" departLane="best" departSpeed="max" from="301503168#1" id="rs_c000_i000_2410" to="24544213"/>
 <trip depart="281.0" departLane="best" departSpeed="max" from="51340803#1" id="rs_c000_i000_2577" to="166533651"/>
 <trip depart="281.0" departLane="best" departSpeed="max" from="-286404309" id="rs_c000_i001_426" to="-138037519"/>
 <trip depart="292.0" departLane="best" departSpeed="max" from="35772871" id="rs_c001_i000_549" to="35772872"/>
 <trip depart="293.0" departLane="best" departSpeed="max" from="-24405231#0" id="rs_c001_i000_556" to="28918381#3"/>
 <trip depart="293.0" departLane="best" departSpeed="max" from="237386917#0" id="rs_c000_i000_3233" to="95916457"/>
 <trip depart="299.58" departLane="best" departSpeed="max" from="257423660#1" id="rs_c000_i000_1658" to="61497943#1"/>
 <trip depart="302.0" departLane="best" departSpeed="max" from="-62106322#0" id="rs_c001_i000_145" to="-62106186#0"/>
 <trip depart="302.0" departLane="best" departSpeed="max" from="-75565714" id="rs_c001_i000_578" to="-61495637"/>
 <trip depart="303.0" departLane="best" departSpeed="max" from="-138350778#0" id="rs_c000_i000_3335" to="-101521569#0"/>
 <trip depart="304.0" departLane="best" departSpeed="max" from="-125589533" id="rs_c001_i000_582" to="240100844#1"/>
 <trip depart="308.0" departLane="best" departSpeed="max" from="-95937728#1" id="rs_c000_i001_397" to="-95937728#0"/>
 <trip depart="309.0" departLane="best" departSpeed="max" from="-314422898#0" id="rs_c000_i000_3396" to="286175728"/>
 <trip depart="309.0" departLane="best" departSpeed="max" from="-126449297#1" id="rs_c000_i000_3399" to="-126449297#0"/>
 <trip depart="310.47" departLane="best" departSpeed="max" from="240100844#0" id="rs_c000_i000_28" to="240100844#1"/>
 <trip depart="311.0" departLane="best" departSpeed="max" from="-122529096#6" id="rs_c000_i000_3427" to="-122529096#5"/>
 <trip depart="315.0" departLane="best" departSpeed="max" from="-10425852" id="rs_c000_i001_487" to="-14573382#2"/>
 <trip depart="316.0" departLane="best" departSpeed="max" from="-211208696#0" id="rs_c001_i000_417" to="-839402626#0"/>
 <trip depart="317.34" departLane="best" departSpeed="max" from="58097865" id="rs_c001_i000_86" to="30015227"/>
 <trip depart="318.0" departLane="best" departSpeed="max" from="84656707#1" id="rs_c000_i000_3508" to="84639228#1"/>
 <trip depart="321.0" departLane="best" departSpeed="max" from="-84017451#1" id="rs_c001_i000_609" to="-84017451#0"/>
 <trip depart="325.0" departLane="best" departSpeed="max" from="188956290" id="rs_c000_i000_3587" to="97117877"/>
 <trip depart="327.0" departLane="best" departSpeed="max" from="331292452" id="rs_c001_i000_618" to="14571551"/>
 <trip depart="329.0" departLane="best" departSpeed="max" from="-20179292#0" id="rs_c000_i000_3634" to="-211129670#0"/>
 <trip depart="331.37" departLane="best" departSpeed="max" from="-30471451" id="rs_c000_i000_1682" to="30605198"/>
 <trip depart="338.0" departLane="best" departSpeed="max" from="56253839" id="rs_c001_i000_644" to="30098518"/>
 <trip depart="342.0" departLane="best" departSpeed="max" from="-38336405#0" id="rs_c000_i000_3759" to="35772871"/>
 <trip depart="343.0" departLane="best" departSpeed="max" from="5095166" id="rs_c001_i000_652" to="61982179"/>
 <trip depart="346.0" departLane="best" departSpeed="max" from="-122529110" id="rs_c000_i000_3802" to="169313833#1"/>
 <trip depart="348.0" departLane="best" departSpeed="max" from="-122529101" id="rs_c001_i000_660" to="122529102#2"/>
 <trip depart="350.0" departLane="best" departSpeed="max" from="-32461045#3" id="rs_c000_i002_76" to="-31465531#1"/>
 <trip depart="353.03" departLane="best" departSpeed="max" from="62059875#1" id="rs_c000_i000_665" to="62059875#2"/>
 <trip depart="354.0" departLane="best" departSpeed="max" from="-122529094#5" id="rs_c000_i000_3898" to="-95937728#0"/>
 <trip depart="355.0" departLane="best" departSpeed="max" from="-8394848" id="rs_c000_i002_77" to="-4341507#0"/>
 <trip depart="356.43" departLane="best" departSpeed="max" from="58097865" id="rs_c000_i000_1973" to="30015227"/>
 <trip depart="358.0" departLane="best" departSpeed="max" from="86527638#1" id="rs_c000_i000_3936" to="-349909771"/>
 <trip depart="361.0" departLane="best" departSpeed="max" from="79057000" id="rs_c000_i000_3966" to="142497095"/>
 <trip depart="363.0" departLane="best" departSpeed="max" from="-5230785" id="rs_c000_i000_3989" to="-328253310#1"/>
 <trip depart="364.25" departLane="best" departSpeed="max" from="58097865" id="rs_c001_i000_232" to="30015227"/>
 <trip depart="366.0" departLane="best" departSpeed="max" from="-349902607#0" id="rs_c001_i000_693" to="349902606#0"/>
 <trip depart="367.0" departLane="best" departSpeed="max" from="-95937728#1" id="rs_c000_i000_2366" to="-95937728#0"/>
 <trip depart="368.0" departLane="best" departSpeed="max" from="132817973#0" id="rs_c000_i001_568" to="18648957#0"/>
 <trip depart="370.0" departLane="best" departSpeed="max" from="-10426219" id="rs_c000_i001_570" to="-10426204#0"/>
 <trip depart="372.24" departLane="best" departSpeed="max" from="-30471451" id="rs_c000_i000_2763" to="30605198"/>
 <trip depart="379.0" departLane="best" departSpeed="max" from="-211208696#0" id="rs_c001_i000_701" to="-839402626#0"/>
 <trip depart="383.0" departLane="best" departSpeed="max" from="-14571550#0" id="rs_c000_i001_587" to="15242125"/>
 <trip depart="388.0" departLane="best" departSpeed="max" from="-122529094#10" id="rs_c000_i000_4275" to="-122529094#9"/>
 <trip depart="388.0" departLane="best" departSpeed="max" from="5091199" id="rs_c000_i000_4287" to="62059875#1"/>
 <trip depart="389.0" departLane="best" departSpeed="max" from="-5234378" id="rs_c001_i000_740" to="175129268"/>
 <trip depart="392.0" departLane="best" departSpeed="max" from="-28918381#0" id="rs_c000_i000_4344" to="-61367455"/>
 <trip depart="392.37" departLane="best" departSpeed="max" from="240100844#0" id="rs_c001_i000_233" to="240100844#1"/>
 <trip depart="392.52" departLane="best" departSpeed="max" from="-30471451" id="rs_c000_i001_369" to="30605198"/>
 <trip depart="394.0" departLane="best" departSpeed="max" from="-52291443" id="rs_c001_i000_753" to="-20179292#0"/>
 <trip depart="396.0" departLane="best" departSpeed="max" from="76737569" id="rs_c000_i001_607" to="76737570#0"/>
 <trip depart="398.0" departLane="best" departSpeed="max" from="5095178#0" id="rs_c000_i000_4398" to="-233171094#1"/>
 <trip depart="398.17" departLane="best" departSpeed="max" from="62059875#1" id="rs_c001_i001_22" to="62059875#2"/>
 <trip depart="400.0" departLane="best" departSpeed="max" from="-121411748#1" id="rs_c000_i000_4388" to="83173314"/>
 <trip depart="400.0" departLane="best" departSpeed="max" from="-95799435" id="rs_c000_i001_619" to="97694266"/>
 <trip depart="402.0" departLane="best" departSpeed="max" from="-122529096#7" id="rs_c000_i000_4462" to="-122529096#6"/>
 <trip depart="406.0" departLane="best" departSpeed="max" from="84639218" id="rs_c000_i000_4508" to="339725034"/>
 <trip depart="410.0" departLane="best" departSpeed="max" from="-74011129#0" id="rs_c000_i000_4548" to="-63322106#0"/>
 <trip depart="411.0" departLane="best" departSpeed="max" from="5234573#1" id="rs_c000_i000_4561" to="154150880#1"/>
 <trip depart="413.0" departLane="best" departSpeed="max" from="-118155450" id="rs_c000_i000_4591" to="24031456#4"/>
 <trip depart="414.0" departLane="best" departSpeed="max" from="95916459" id="rs_c000_i001_632" to="95916457"/>
 <trip depart="416.0" departLane="best" departSpeed="max" from="-95937728#1" id="rs_c000_i000_4052" to="-95937728#0"/>
 <trip depart="416.0" departLane="best" departSpeed="max" from="136721679#0" id="rs_c000_i000_4626" to="136721679#1"/>
 <trip depart="416.0" departLane="best" departSpeed="max" from="-95212556" id="rs_c000_i000_4637" to="-96809695#2"/>
 <trip depart="416.44" departLane="best" departSpeed="max" from="240100844#0" id="rs_c001_i000_441_part1" to="240100844#1"/>
 <trip depart="418.0" departLane="best" departSpeed="max" from="122529094#0" id="rs_c000_i000_4646" to="122529094#1"/>
 <trip depart="418.12" departLane="best" departSpeed="max" from="30471452#0" id="rs_c000_i000_242" to="26349747#0"/>
 <trip depart="421.0" departLane="best" departSpeed="max" from="-328253310#0" id="rs_c000_i000_4678" to="-328253307"/>
 <trip depart="422.0" departLane="best" departSpeed="max" from="-210457775#1" id="rs_c000_i000_4689" to="-210457775#0"/>
 <trip depart="428.0" departLane="best" departSpeed="max" from="-136721675" id="rs_c000_i000_4767" to="-369150317#0"/>
 <trip depart="428.85" departLane="best" departSpeed="max" from="30471452#0" id="rs_c000_i000_178" to="26349747#0"/>
 <trip depart="429.0" departLane="best" departSpeed="max" from="-26040294#1" id="rs_c000_i001_665" to="-26040294#0"/>
 <trip depart="430.0" departLane="best" departSpeed="max" from="-83510232#0" id="rs_c001_i001_103" to="-313656937"/>
 <trip depart="431.0" departLane="best" departSpeed="max" from="-23960853#0" id="rs_c000_i000_4802" to="23960868#0"/>
 <trip depart="432.35" departLane="best" departSpeed="max" from="-30471451" id="rs_c000_i000_2673" to="30605198"/>
 <trip depart="432.39" departLane="best" departSpeed="max" from="-30471451" id="rs_c000_i000_2587" to="30605198"/>
 <trip depart="433.0" departLane="best" departSpeed="max" from="118864079#1" id="rs_c000_i000_4821" to="118864079#2"/>
 <trip depart="433.0" departLane="best" departSpeed="max" from="-116049443#2" id="rs_c000_i000_4829" to="116049443#2"/>
 <trip depart="434.0" departLane="best" departSpeed="max" from="-137388193" id="rs_c000_i000_4832" to="14571551"/>
 <trip depart="434.62" departLane="best" departSpeed="max" from="29508075#2" id="rs_c000_i000_1243_part1" to="34776006"/>
 <trip depart="435.33" departLane="best" departSpeed="max" from="-30471451" id="rs_c000_i001_467" to="30605198"/>
 <trip depart="437.0" departLane="best" departSpeed="max" from="118869284#0" id="rs_c001_i000_848" to="122529094#4"/>
 <trip depart="437.04" departLane="best" departSpeed="max" from="25600863" id="rs_c000_i000_987" to="37972616"/>
 <trip depart="437.67" departLane="best" departSpeed="max" from="-30471451" id="rs_c001_i000_522" to="30605198"/>
 <trip depart="438.0" departLane="best" departSpeed="max" from="-95937728#1" id="rs_c000_i000_4122" to="-95937728#0"/>
 <trip depart="439.0" departLane="best" departSpeed="max" from="-98236882#0" id="rs_c001_i000_852" to="-78535771"/>
 <trip depart="439.0" departLane="best" departSpeed="max" from="56253839" id="rs_c001_i000_853" to="30098518"/>
 <trip depart="439.0" departLane="best" departSpeed="max" from="4361529#1" id="rs_c000_i000_4895" to="-136864084#2"/>
 <trip depart="439.0" departLane="best" departSpeed="max" from="97097111#1" id="rs_c000_i000_4896" to="96596623#1"/>
 <trip depart="444.37" departLane="best" departSpeed="max" from="62059875#1" id="rs_c000_i000_763" to="62059875#2"/>
 <trip depart="445.52" departLane="best" departSpeed="max" from="-30471451" id="rs_c000_i000_2251" to="30605198"/>
 <trip depart="451.0" departLane="best" departSpeed="max" from="4250371" id="rs_c000_i000_5031" to="98236882#1"/>
 <trip depart="452.0" departLane="best" departSpeed="max" from="-84639207" id="rs_c001_i000_877" to="-84639229#0"/>
 <trip depart="453.0" departLane="best" departSpeed="max" from="126449309" id="rs_c000_i001_699" to="-328266344"/>
 <trip depart="454.0" departLane="best" departSpeed="max" from="-61367451" id="rs_c001_i000_884" to="28918381#3"/>
 <trip depart="457.0" departLane="best" departSpeed="max" from="-211208696#0" id="rs_c000_i000_4518" to="-839402626#0"/>
 <trip depart="458.0" departLane="best" departSpeed="max" from="707213263#0" id="rs_c000_i000_5115" to="971831434"/>
 <trip depart="459.0" departLane="best" departSpeed="max" from="118864084" id="rs_c000_i000_5134" to="-57726373#0"/>
 <trip depart="459.0" departLane="best" departSpeed="max" from="24031456#5" id="rs_c000_i000_5137" to="24031456#6"/>
 <trip depart="459.78" departLane="best" departSpeed="max" from="35703215" id="rs_c000_i000_1524" to="1075704928#2"/>
 <trip depart="460.0" departLane="best" departSpeed="max" from="38674850" id="rs_c000_i000_324" to="148927038"/>
 <trip depart="464.0" departLane="best" departSpeed="max" from="-212694590" id="rs_c000_i000_5199" to="-26127182#2"/>
 <trip depart="464.0" departLane="best" departSpeed="max" from="125351183" id="rs_c000_i000_5206" to="-297159795#0"/>
 <trip depart="465.0" departLane="best" departSpeed="max" from="-35605874#2" id="rs_c000_i000_5212" to="-35605874#1"/>
 <trip depart="465.6" departLane="best" departSpeed="max" from="30471452#0" id="rs_c000_i000_1202" to="26349747#0"/>
 <trip depart="466.0" departLane="best" departSpeed="max" from="-95937728#1" id="rs_c000_i000_3350" to="-95937728#0"/>
 <trip depart="469.0" departLane="best" departSpeed="max" from="-286243201" id="rs_c000_i000_5258" to="-97989561"/>
 <trip depart="471.6" departLane="best" departSpeed="max" from="30471452#0" id="rs_c000_i000_447" to="26349747#0"/>
 <trip depart="474.0" departLane="best" departSpeed="max" from="183247520" id="rs_c000_i001_730" to="183247521#1"/>
 <trip depart="477.0" departLane="best" departSpeed="max" from="126140573#0" id="rs_c000_i000_5336" to="30140137#0"/>
 <trip depart="478.38" departLane="best" departSpeed="max" from="30471452#0" id="rs_c000_i000_493" to="26349747#0"/>
 <trip depart="479.0" departLane="best" departSpeed="max" from="301503168#1" id="rs_c000_i000_3495" to="24544213"/>
 <trip depart="479.0" departLane="best" departSpeed="max" from="-26040356#1" id="rs_c001_i000_923" to="26040355#1"/>
 <trip depart="480.94" departLane="best" departSpeed="max" from="30471452#0" id="rs_c000_i000_352" to="26349747#0"/>
 <trip depart="482.0" departLane="best" departSpeed="max" from="116049443#1" id="rs_c000_i000_4857_part1" to="-122529094#8"/>
 <trip depart="482.41" departLane="best" departSpeed="max" from="25600863" id="rs_c000_i000_684" to="37972616"/>
 <trip depart="482.81" departLane="best" departSpeed="max" from="30471452#0" id="rs_c000_i000_458" to="26349747#0"/>
 <trip depart="483.0" departLane="best" departSpeed="max" from="-122529094#9" id="rs_c000_i001_744" to="-122529094#8"/>
 <trip depart="485.0" departLane="best" departSpeed="max" from="-83488868" id="rs_c000_i000_5410" to="-83510232#0"/>
 <trip depart="485.0" departLane="best" departSpeed="max" from="-116049439#0" id="rs_c000_i000_5417" to="118864079#2"/>
 <trip depart="486.0" departLane="best" departSpeed="max" from="8394862" id="rs_c001_i001_112" to="-85562446#0"/>
 <trip depart="486.0" departLane="best" departSpeed="max" from="-84639212" id="rs_c001_i001_113" to="-366308474"/>