<?xml version="1.0" encoding="utf-8"?>
<routes>
 <trip depart="1.0" departLane="best" departSpeed="max" from="321098632#1" id="rs_c001_i000_0" to="126140573#0"/>
 <trip depart="18.0" departLane="best" departSpeed="max" from="-63134322#1" id="rs_c001_i000_31" to="-51722317"/>
 <trip depart="23.0" departLane="best" departSpeed="max" from="-122529098#1" id="rs_c000_i000_277" to="4353778#0"/>
 <trip depart="24.0" departLane="best" departSpeed="max" from="-117643614#1" id="rs_c000_i001_32" to="-117643614#0"/>
 <trip depart="26.0" departLane="best" departSpeed="max" from="43263108" id="rs_c001_i000_42" to="-61367459"/>
 <trip depart="27.0" departLane="best" departSpeed="max" from="-74011129#0" id="rs_c000_i001_35" to="-63322106#0"/>
 <trip depart="38.0" departLane="best" departSpeed="max" from="-62106322#0" id="rs_c000_i001_5_part1" to="-62106186#0"/>
 <trip depart="47.0" departLane="best" departSpeed="max" from="-136721671" id="rs_c000_i000_533" to="-132047178"/>
 <trip depart="51.0" departLane="best" departSpeed="max" from="51340803#1" id="rs_c001_i000_35" to="166533651"/>
 <trip depart="58.0" departLane="best" departSpeed="max" from="-324738924" id="rs_c001_i000_127" to="76346323"/>
 <trip depart="67.0" departLane="best" departSpeed="max" from="-84017983" id="rs_c000_i001_97" to="-84656707#0"/>
 <trip depart="75.0" departLane="best" departSpeed="max" from="-237367748#2" id="rs_c000_i000_879" to="4237991"/>
 <trip depart="76.0" departLane="best" departSpeed="max" from="26040294#1" id="rs_c000_i000_880" to="26040294#2"/>
 <trip depart="80.0" departLane="best" departSpeed="max" from="96915239#1" id="rs_c000_i000_928" to="213132380"/>
 <trip depart="82.0" departLane="best" departSpeed="max" from="-5234278#1" id="rs_c000_i000_940" to="202342090#1"/>
 <trip depart="84.0" departLane="best" departSpeed="max" from="-117654815#3" id="rs_c000_i001_120" to="-117654815#2"/>
 <trip depart="86.0" departLane="best" departSpeed="max" from="301503168#1" id="rs_c001_i000_69" to="24544213"/>
 <trip depart="86.0" departLane="best" departSpeed="max" from="-30141086#0" id="rs_c001_i000_186" to="29712025#0"/>
 <trip depart="93.0" departLane="best" departSpeed="max" from="4643592" id="rs_c000_i001_133" to="-4643592"/>
 <trip depart="98.0" departLane="best" departSpeed="max" from="-5234464" id="rs_c000_i000_1131" to="-30141086#0"/>
 <trip depart="100.0" departLane="best" departSpeed="max" from="84017451#0" id="rs_c000_i000_1143" to="-84016143"/>
 <trip depart="101.0" departLane="best" departSpeed="max" from="137996244#0" id="rs_c000_i000_1157" to="-122529114#1"/>
 <trip depart="107.0" departLane="best" departSpeed="max" from="-34777320" id="rs_c000_i000_1213" to="-24399325#0"/>
 <trip depart="109.0" departLane="best" departSpeed="max" from="51340803#1" id="rs_c000_i001_146" to="166533651"/>
 <trip depart="118.0" departLane="best" departSpeed="max" from="-136721667" id="rs_c000_i000_1338" to="-852319713#2"/>
 <trip depart="119.0" departLane="best" departSpeed="max" from="301503168#1" id="rs_c001_i000_113" to="24544213"/>
 <trip depart="121.0" departLane="best" departSpeed="max" from="890973612" id="rs_c000_i000_1366" to="126449309"/>
 <trip depart="124.0" departLane="best" departSpeed="max" from="4244655" id="rs_c000_i000_1413" to="644345097"/>
 <trip depart="128.0" departLane="best" departSpeed="max" from="-118155453" id="rs_c000_i001_193" to="-34776023#0"/>
 <trip depart="136.0" departLane="best" departSpeed="max" from="10559201" id="rs_c000_i001_200" to="-84639212"/>
 <trip depart="143.0" departLane="best" departSpeed="max" from="4492786" id="rs_c000_i000_1621" to="34178666"/>
 <trip depart="145.0" departLane="best" departSpeed="max" from="-83510232#0" id="rs_c000_i001_218" to="-313656937"/>
 <trip depart="147.85" departLane="best" departSpeed="max" from="35062276" id="rs_c001_i000_25" to="97097111#1"/>
 <trip depart="151.0" departLane="best" departSpeed="max" from="-211120148" id="rs_c000_i001_114" to="-116049788#0"/>
 <trip depart="164.0" departLane="best" departSpeed="max" from="-118869284#1" id="rs_c000_i000_1842" to="118869284#1"/>
 <trip depart="164.0" departLane="best" departSpeed="max" from="-335084841#0" id="rs_c000_i002_40" to="-5234378"/>
 <trip depart="165.0" departLane="best" departSpeed="max" from="-234540368" id="rs_c000_i000_1853" to="234540367"/>
 <trip depart="167.0" departLane="best" departSpeed="max" from="-5234280#0" id="rs_c000_i000_1879" to="-5234278#1"/>
 <trip depart="169.0" departLane="best" departSpeed="max" from="-328813517" id="rs_c001_i000_320" to="-142497100#0"/>
 <trip depart="169.0" departLane="best" departSpeed="max" from="-10357406#1" id="rs_c001_i000_338" to="30326722"/>
 <trip depart="174.0" departLane="best" departSpeed="max" from="-10425858" id="rs_c000_i002_41" to="-14573382#1"/>
 <trip depart="176.0" departLane="best" departSpeed="max" from="-366308474" id="rs_c000_i000_1964" to="10558007#0"/>
 <trip depart="176.0" departLane="best" departSpeed="max" from="8102482" id="rs_c000_i000_1965" to="-81646465#1"/>
 <trip depart="177.0" departLane="best" departSpeed="max" from="51856551#0" id="rs_c001_i000_348" to="1006265805#3"/>
 <trip depart="178.63" departLane="best" departSpeed="max" from="-30471451" id="rs_c001_i000_46" to="30605198"/>
 <trip depart="185.0" departLane="best" departSpeed="max" from="5234587" id="rs_c001_i000_361" to="154150880#1"/>
 <trip depart="188.0" departLane="best" departSpeed="max" from="-644345091#0" id="rs_c001_i000_292" to="707213265"/>
 <trip depart="203.0" departLane="best" departSpeed="max" from="-122529110" id="rs_c000_i000_2237" to="169313833#1"/>
 <trip depart="207.0" departLane="best" departSpeed="max" from="-95937728#1" id="rs_c000_i000_698" to="-95937728#0"/>
 <trip depart="209.0" departLane="best" departSpeed="max" from="-211208696#0" id="rs_c000_i001_206" to="-839402626#0"/>
 <trip depart="216.0" departLane="best" departSpeed="max" from="-116049442" id="rs_c000_i000_2391" to="222307221#0"/>
 <trip depart="219.0" departLane="best" departSpeed="max" from="906802009" id="rs_c001_i000_425" to="94107470"/>
 <trip depart="224.0" departLane="best" departSpeed="max" from="-26127182#2" id="rs_c000_i000_2475" to="-26127182#1"/>
 <trip depart="241.0" departLane="best" departSpeed="max" from="-20179292#0" id="rs_c000_i000_2655" to="-211129670#0"/>
 <trip depart="242.0" departLane="best" departSpeed="max" from="-10426171#1" id="rs_c001_i000_473" to="-10426171#0"/>
 <trip depart="243.0" departLane="best" departSpeed="max" from="169313833#0" id="rs_c000_i000_2668" to="169313833#1"/>
 <trip depart="244.0" departLane="best" departSpeed="max" from="-122529102#3" id="rs_c000_i001_364" to="122529094#1"/>
 <trip depart="254.0" departLane="best" departSpeed="max" from="-61565968" id="rs_c001_i001_64" to="-61543316#1"/>
 <trip depart="255.0" departLane="best" departSpeed="max" from="34149613" id="rs_c000_i001_378" to="-34149612#0"/>
 <trip depart="259.0" departLane="best" departSpeed="max" from="-212694590" id="rs_c000_i000_2852" to="-26127182#2"/>
 <trip depart="262.0" departLane="best" departSpeed="max" from="-63134322#1" id="rs_c000_i001_400" to="-51722317"/>
 <trip depart="267.0" departLane="best" departSpeed="max" from="-211129670#0" id="rs_c001_i000_506" to="-4232328"/>
 <trip depart="267.0" departLane="best" departSpeed="max" from="-290255303#2" id="rs_c000_i000_2943" to="-26165752#0"/>
 <trip depart="269.0" departLane="best" departSpeed="max" from="98236882#1" id="rs_c001_i000_511" to="87397777"/>
 <trip depart="274.87" departLane="best" departSpeed="max" from="-30471451" id="rs_c000_i000_605" to="30605198"/>
 <trip depart="275.0" departLane="best" departSpeed="max" from="-16345605#1" id="rs_c000_i000_3041" to="-16345605#0"/>
 <trip depart="278.0" departLane="best" departSpeed="max" from="56253839" id="rs_c000_i000_3068" to="30098518"/>
 <trip depart="281.0" departLane="best" departSpeed="max" from="-286404309" id="rs_c000_i001_426" to="-138037519"/>
 <trip depart="282.0" departLane="best" departSpeed="max" from="-95100609" id="rs_c000_i000_3122" to="-301145897"/>
 <trip depart="288.57" departLane="best" departSpeed="max" from="38674850" id="rs_c000_i000_578" to="148927038"/>
 <trip depart="292.0" departLane="best" departSpeed="max" from="35772871" id="rs_c001_i000_549" to="35772872"/>
 <trip depart="302.0" departLane="best" departSpeed="max" from="-75565714" id="rs_c001_i000_578" to="-61495637"/>
 <trip depart="315.0" departLane="best" departSpeed="max" from="-10425852" id="rs_c000_i001_487" to="-14573382#2"/>
 <trip depart="316.0" departLane="best" departSpeed="max" from="-79690674#0" id="rs_c000_i001_296" to="30326560"/>
 <trip depart="317.34" departLane="best" departSpeed="max" from="58097865" id="rs_c001_i000_86" to="30015227"/>
 <trip depart="318.0" departLane="best" departSpeed="max" from="-5230785" id="rs_c001_i000_604" to="-328253310#1"/>
 <trip depart="322.0" departLane="best" departSpeed="max" from="14571549" id="rs_c000_i001_500" to="-137388192#0"/>
 <trip depart="327.0" departLane="best" departSpeed="max" from="191374712#1" id="rs_c001_i000_619" to="-191270666"/>
 <trip depart="335.0" departLane="best" departSpeed="max" from="-101521565" id="rs_c000_i000_3685" to="101521562"/>
 <trip depart="338.0" departLane="best" departSpeed="max" from="-15242128#0" id="rs_c000_i000_3720" to="-5234280#0"/>
 <trip depart="342.0" departLane="best" departSpeed="max" from="-38336405#0" id="rs_c000_i000_3759" to="35772871"/>
 <trip depart="347.0" departLane="best" departSpeed="max" from="-211208696#0" id="rs_c001_i000_536" to="-839402626#0"/>
 <trip depart="348.0" departLane="best" departSpeed="max" from="-122529101" id="rs_c001_i000_660" to="122529102#2"/>
 <trip depart="354.0" departLane="best" departSpeed="max" from="-211120148" id="rs_c001_i000_475" to="-116049788#0"/>
 <trip depart="357.0" departLane="best" departSpeed="max" from="-81646465#1" id="rs_c000_i000_3926" to="10357494"/>
 <trip depart="358.0" departLane="best" departSpeed="max" from="86527638#1" id="rs_c000_i000_3936" to="-349909771"/>
 <trip depart="359.36" departLane="best" departSpeed="max" from="58097865" id="rs_c001_i000_363" to="30015227"/>
 <trip depart="364.0" departLane="best" departSpeed="max" from="166533654#1" id="rs_c001_i000_690" to="30529010#1"/>
 <trip depart="365.0" departLane="best" departSpeed="max" from="-95212556" id="rs_c000_i000_4007" to="-96809695#2"/>
 <trip depart="368.0" departLane="best" departSpeed="max" from="132817973#0" id="rs_c000_i001_568" to="18648957#0"/>
 <trip depart="368.93" departLane="best" departSpeed="max" from="257423660#1" id="rs_c001_i000_81" to="61497943#1"/>
 <trip depart="374.0" departLane="best" departSpeed="max" from="-30471451" id="rs_c000_i000_4092" to="30605198"/>
 <trip depart="381.0" departLane="best" departSpeed="max" from="117654826" id="rs_c000_i000_4209" to="-117654815#3"/>
 <trip depart="384.0" departLane="best" departSpeed="max" from="-74693877" id="rs_c001_i000_732" to="5095190#0"/>
 <trip depart="388.0" departLane="best" departSpeed="max" from="-122529094#10" id="rs_c000_i000_4275" to="-122529094#9"/>
 <trip depart="393.0" departLane="best" departSpeed="max" from="-10426011#1" id="rs_c001_i000_751" to="166533654#1"/>
 <trip depart="396.0" departLane="best" departSpeed="max" from="76737569" id="rs_c000_i001_607" to="76737570#0"/>
 <trip depart="400.0" departLane="best" departSpeed="max" from="-24399330#1" id="rs_c001_i000_632" to="-24399330#0"/>
 <trip depart="400.0" departLane="best" departSpeed="max" from="-208585109#0" id="rs_c000_i000_4416" to="-84656435#0"/>
 <trip depart="409.4" departLane="best" departSpeed="max" from="30471452#0" id="rs_c000_i000_413" to="26349747#0"/>
 <trip depart="413.0" departLane="best" departSpeed="max" from="-118155450" id="rs_c000_i000_4591" to="24031456#4"/>
 <trip depart="416.44" departLane="best" departSpeed="max" from="240100844#0" id="rs_c001_i000_441_part1" to="240100844#1"/>
 <trip depart="417.0" departLane="best" departSpeed="max" from="-328253309#0" id="rs_c000_i000_4624" to="126449315#0"/>
 <trip depart="418.12" departLane="best" departSpeed="max" from="30471452#0" id="rs_c000_i000_242" to="26349747#0"/>
 <trip depart="419.0" departLane="best" departSpeed="max" from="-62057537" id="rs_c001_i001_101" to="-74693877"/>
 <trip depart="422.0" departLane="best" departSpeed="max" from="-335084841#1" id="rs_c000_i000_4684" to="-335084841#0"/>
 <trip depart="422.0" departLane="best" departSpeed="max" from="-210457775#1" id="rs_c000_i000_4689" to="-210457775#0"/>
 <trip depart="422.0" departLane="best" departSpeed="max" from="8394862" id="rs_c000_i000_4693" to="-85562446#0"/>
 <trip depart="422.2" departLane="best" departSpeed="max" from="35062276" id="rs_c000_i000_3918" to="97097111#1"/>
 <trip depart="423.0" departLane="best" departSpeed="max" from="631862806" id="rs_c001_i000_812" to="-30471451"/>
 <trip depart="424.0" departLane="best" departSpeed="max" from="24423960" id="rs_c000_i000_4718" to="62057546"/>
 <trip depart="430.0" departLane="best" departSpeed="max" from="-83510232#0" id="rs_c001_i001_103" to="-313656937"/>
 <trip depart="430.39" departLane="best" departSpeed="max" from="-30471451" id="rs_c000_i000_2866" to="30605198"/>
 <trip depart="437.0" departLane="best" departSpeed="max" from="-4232328" id="rs_c000_i000_4872" to="530282945#1"/>
 <trip depart="439.0" departLane="best" departSpeed="max" from="4361529#1" id="rs_c000_i000_4895" to="-136864084#2"/>
 <trip depart="442.0" departLane="best" departSpeed="max" from="-42792917#2" id="rs_c000_i001_688" to="-42792917#1"/>
 <trip depart="442.56" departLane="best" departSpeed="max" from="30471452#0" id="rs_c000_i000_654" to="26349747#0"/>
 <trip depart="446.67" departLane="best" departSpeed="max" from="38674850" id="rs_c000_i000_104" to="148927038"/>
 <trip depart="450.0" departLane="best" departSpeed="max" from="-10357406#1" id="rs_c000_i000_5015" to="30326722"/>
 <trip depart="453.0" departLane="best" departSpeed="max" from="96809693#0" id="rs_c001_i000_881" to="-96809683#0"/>
 <trip depart="454.0" departLane="best" departSpeed="max" from="-79690674#0" id="rs_c000_i000_3586" to="30326560"/>
 <trip depart="455.81" departLane="best" departSpeed="max" from="35703215" id="rs_c000_i001_162" to="1075704928#2"/>
 <trip depart="458.0" departLane="best" departSpeed="max" from="707213263#0" id="rs_c000_i000_5115" to="971831434"/>
 <trip depart="459.0" departLane="best" departSpeed="max" from="24031456#5" id="rs_c000_i000_5137" to="24031456#6"/>
 <trip depart="463.0" departLane="best" departSpeed="max" from="183247520" id="rs_c000_i000_5186" to="183247521#1"/>
 <trip depart="464.0" departLane="best" departSpeed="max" from="-24399330#1" id="rs_c001_i000_766" to="-24399330#0"/>
 <trip depart="464.0" departLane="best" departSpeed="max" from="-212694590" id="rs_c000_i000_5199" to="-26127182#2"/>
 <trip depart="464.59" departLane="best" departSpeed="max" from="62059875#1" id="rs_c000_i000_593" to="62059875#2"/>
 <trip depart="465.13" departLane="best" departSpeed="max" from="62059875#1" id="rs_c000_i000_4116" to="62059875#2"/>
 <trip depart="465.6" departLane="best" departSpeed="max" from="30471452#0" id="rs_c000_i000_1202" to="26349747#0"/>
 <trip depart="475.0" departLane="best" departSpeed="max" from="8141209" id="rs_c000_i000_5313" to="24487041"/>
 <trip depart="477.0" departLane="best" departSpeed="max" from="-212694590" id="rs_c000_i001_732" to="-26127182#2"/>
 <trip depart="481.0" departLane="best" departSpeed="max" from="328253310#1" id="rs_c000_i000_5374" to="890973612"/>
 <trip depart="485.0" departLane="best" departSpeed="max" from="-116049439#0" id="rs_c000_i000_5417" to="118864079#2"/>
 <trip depart="492.38" departLane="best" departSpeed="max" from="58097865" id="rs_c000_i000_88" to="30015227"/>
 <trip depart="502.0" departLane="best" departSpeed="max" from="4226192#2" id="rs_c001_i000_968" to="26369585"/>
 <trip depart="503.0" departLane="best" departSpeed="max" from="-95937728#1" id="rs_c000_i000_4150" to="-95937728#0"/>
 <trip depart="506.0" departLane="best" departSpeed="max" from="-15242128#0" id="rs_c000_i001_775" to="-5234280#0"/>
 <trip depart="506.13" departLane="best" departSpeed="max" from="62059875#1" id="rs_c000_i000_1911" to="62059875#2"/>
 <trip depart="508.0" departLane="best" departSpeed="max" from="117099156#1" id="rs_c001_i000_982" to="-26085515#0"/>
 <trip depart="511.0" departLane="best" departSpeed="max" from="103302381" id="rs_c000_i001_764" to="26349563#0"/>
 <trip depart="515.0" departLane="best" departSpeed="max" from="-211120148" id="rs_c001_i000_706" to="-116049788#0"/>
 <trip depart="515.62" departLane="best" departSpeed="max" from="38674850" id="rs_c001_i000_267" to="148927038"/>
 <trip depart="524.0" departLane="best" departSpeed="max" from="26040294#0" id="rs_c000_i000_5828" to="26040294#1"/>
 <trip depart="528.15" departLane="best" departSpeed="max" from="38674850" id="rs_c000_i000_2282" to="148927038"/>
 <trip depart="534.98" departLane="best" departSpeed="max" from="257423660#1" id="rs_c001_i000_675" to="61497943#1"/>
 <trip depart="538.1" departLane="best" departSpeed="max" from="58097865" id="rs_c000_i000_53" to="30015227"/>
 <trip depart="540.0" departLane="best" departSpeed="max" from="301503168#1" id="rs_c000_i000_5622" to="24544213"/>
 <trip depart="540.62" departLane="best" departSpeed="max" from="62059875#1" id="rs_c001_i000_658" to="62059875#2"/>
 <trip depart="540.88" departLane="best" departSpeed="max" from="30471452#0" id="rs_c000_i000_1701" to="26349747#0"/>
 <trip depart="542.0" departLane="best" departSpeed="max" from="35772871" id="rs_c001_i000_1053" to="35772872"/>
 <trip depart="542.0" departLane="best" departSpeed="max" from="4250372" id="rs_c000_i000_6018" to="76737569"/>
 <trip depart="546.0" departLane="best" departSpeed="max" from="-324741543" id="rs_c000_i000_6016" to="-314405014"/>
 <trip depart="546.0" departLane="best" departSpeed="max" from="5234741" id="rs_c000_i000_6055" to="83163133"/>
 <trip depart="550.93" departLane="best" departSpeed="max" from="25600863" id="rs_c000_i001_169" to="37972616"/>
 <trip depart="554.0" departLane="best" departSpeed="max" from="211199291" id="rs_c001_i000_1082" to="-20179292#1"/>
 <trip depart="554.0" departLane="best" departSpeed="max" from="-10558824" id="rs_c000_i000_6152" to="286175725#3"/>
 <trip depart="557.0" departLane="best" departSpeed="max" from="53682403#2" id="rs_c000_i000_6191" to="62789947#1"/>
 <trip depart="562.0" departLane="best" departSpeed="max" from="349909772#1" id="rs_c000_i000_6235" to="10559035"/>
 <trip depart="563.0" departLane="best" departSpeed="max" from="-4227191" id="rs_c001_i001_127" to="-28912204"/>
 <trip depart="565.0" departLane="best" departSpeed="max" from="-79690674#0" id="rs_c000_i000_6177" to="30326560"/>
 <trip depart="566.0" departLane="best" departSpeed="max" from="-26165752#1" id="rs_c000_i000_6278" to="-26165752#0"/>
 <trip depart="571.0" departLane="best" departSpeed="max" from="-14571550#0" id="rs_c000_i000_6342" to="15242125"/>
 <trip depart="571.33" departLane="best" departSpeed="max" from="30471452#0" id="rs_c000_i000_1568" to="26349747#0"/>
 <trip depart="571.84" departLane="best" departSpeed="max" from="58097865" id="rs_c000_i000_1961" to="30015227"/>
 <trip depart="573.0" departLane="best" departSpeed="max" from="51340803#1" id="rs_c001_i000_1095" to="166533651"/>
 <trip depart="574.0" departLane="best" departSpeed="max" from="-62115260" id="rs_c000_i000_6377" to="61566223"/>
 <trip depart="577.0" departLane="best" departSpeed="max" from="-16345605#1" id="rs_c001_i000_1124" to="-16345605#0"/>
 <trip depart="585.0" departLane="best" departSpeed="max" from="4250371" id="rs_c001_i000_1141" to="98236882#1"/>
 <trip depart="585.0" departLane="best" departSpeed="max" from="-233220919" id="rs_c000_i000_6513" to="-117643622"/>
 <trip depart="585.23" departLane="best" departSpeed="max" from="30471452#0" id="rs_c000_i000_621" to="26349747#0"/>
 <trip depart="589.0" departLane="best" departSpeed="max" from="126709272#2" id="rs_c001_i000_1148" to="208548184#1"/>
 <trip depart="591.36" departLane="best" departSpeed="max" from="240100844#0" id="rs_c001_i000_499" to="240100844#1"/>
 <trip depart="592.0" departLane="best" departSpeed="max" from="-118155460" id="rs_c000_i000_6574" to="24031456#6"/>
 <trip depart="592.38" departLane="best" departSpeed="max" from="58097865" id="rs_c000_i001_452" to="30015227"/>
 <trip depart="595.0" departLane="best" departSpeed="max" from="-24399330#1" id="rs_c000_i000_6268_part1" to="-24399330#0"/>
 <trip depart="597.48" departLane="best" departSpeed="max" from="62059875#1" id="rs_c000_i000_2176" to="62059875#2"/>
 <trip depart="602.0" departLane="best" departSpeed="max" from="-14433921#1" id="rs_c000_i000_6687" to="206172956"/>
 <trip depart="603.0" departLane="best" departSpeed="max" from="-10374052" id="rs_c001_i000_1171" to="-211199290#1"/>
 <trip depart="604.0" departLane="best" departSpeed="max" from="118864079#4" id="rs_c001_i000_1173" to="118864079#5"/>
 <trip depart="605.32" departLane="best" departSpeed="max" from="29712334#0" id="rs_c000_i000_2011" to="38674840"/>
 <trip depart="607.5" departLane="best" departSpeed="max" from="30471452#0" id="rs_c001_i000_456" to="26349747#0"/>
 <trip depart="609.52" departLane="best" departSpeed="max" from="38674850" id="rs_c000_i000_1817" to="148927038"/>
 <trip depart="611.93" departLane="best" departSpeed="max" from="38674850" id="rs_c000_i000_3444" to="148927038"/>
 <trip depart="616.87" departLane="best" departSpeed="max" from="35703215" id="rs_c001_i000_142" to="1075704928#2"/>
 <trip depart="617.0" departLane="best" departSpeed="max" from="-95937728#1" id="rs_c000_i000_5360" to="-95937728#0"/>
 <trip depart="618.1" departLane="best" departSpeed="max" from="58097865" id="rs_c000_i000_2261" to="30015227"/>
 <trip depart="619.0" departLane="best" departSpeed="max" from="-38281520#1" id="rs_c001_i000_1195" to="5095197#1"/>
 <trip depart="621.0" departLane="best" departSpeed="max" from="-26085515#0" id="rs_c000_i000_6897" to="-117099133"/>
 <trip depart="622.0" departLane="best" departSpeed="max" from="-300060711" id="rs_c000_i000_6914" to="24821927#1"/>
 <trip depart="622.08" departLane="best" departSpeed="max" from="30471452#0" id="rs_c000_i000_1659" to="26349747#0"/>
 <trip depart="626.0" departLane="best" departSpeed="max" from="-60726625" id="rs_c000_i000_6947" to="-57078728"/>
 <trip depart="629.64" departLane="best" departSpeed="max" from="30471452#0" id="rs_c000_i001_301" to="26349747#0"/>
 <trip depart="631.0" departLane="best" departSpeed="max" from="-4353778#3" id="rs_c001_i000_1215" to="-4353778#2"/>
 <trip depart="631.0" departLane="best" departSpeed="max" from="136721667" id="rs_c000_i001_968" to="290255301"/>
 <trip depart="634.0" departLane="best" departSpeed="max" from="220802775" id="rs_c001_i000_1223" to="26626181"/>
 <trip depart="634.0" departLane="best" departSpeed="max" from="-211695402" id="rs_c000_i000_7043" to="-58097862#0"/>
 <trip depart="636.0" departLane="best" departSpeed="max" from="10557655" id="rs_c000_i000_7072" to="314250821"/>
 <trip depart="636.0" departLane="best" departSpeed="max" from="-61495638" id="rs_c000_i000_7076" to="-75567703#1"/>
 <trip depart="638.0" departLane="best" departSpeed="max" from="-234540368" id="rs_c000_i000_7098" to="234540367"/>
 <trip depart="639.0" departLane="best" departSpeed="max" from="-211208696#0" id="rs_c001_i000_1085" to="-839402626#0"/>
 <trip depart="641.0" departLane="best" departSpeed="max" from="-142497100#0" id="rs_c000_i000_7133" to="-103302383#2"/>
 <trip depart="643.7" departLane="best" departSpeed="max" from="240100844#0" id="rs_c000_i000_4223" to="240100844#1"/>
 <trip depart="648.0" departLane="best" departSpeed="max" from="-95937728#1" id="rs_c000_i000_6587" to="-95937728#0"/>
 <trip depart="653.0" departLane="best" departSpeed="max" from="219528064" id="rs_c000_i000_7260" to="126449221#0"/>
 <trip depart="659.48" departLane="best" departSpeed="max" from="58097865" id="rs_c000_i000_5155" to="30015227"/>
 <trip depart="660.0" departLane="best" departSpeed="max" from="-30141087" id="rs_c000_i000_7333" to="-30141086#0"/>
 <trip depart="662.0" departLane="best" departSpeed="max" from="25976329#1" id="rs_c000_i000_7358" to="-117623505"/>
 <trip depart="666.24" departLane="best" departSpeed="max" from="58097865" id="rs_c000_i000_4288" to="30015227"/>
 <trip depart="667.0" departLane="best" departSpeed="max" from="-8394848" id="rs_c001_i001_158" to="-4341507#0"/>
 <trip depart="669.41" departLane="best" departSpeed="max" from="35062276" id="rs_c001_i000_1120" to="97097111#1"/>
 <trip depart="670.0" departLane="best" departSpeed="max" from="-95937728#1" id="rs_c000_i000_6635" to="-95937728#0"/>
 <trip depart="670.06" departLane="best" departSpeed="max" from="30471452#0" id="rs_c000_i000_1696" to="26349747#0"/>
 <trip depart="671.0" departLane="best" departSpeed="max" from="-63116648#1" id="rs_c000_i002_146" to="-63116648#0"/>
 <trip depart="675.76" departLane="best" departSpeed="max" from="30471452#0" id="rs_c000_i000_1344" to="26349747#0"/>
 <trip depart="678.0" departLane="best" departSpeed="max" from="362993459" id="rs_c000_i000_7545" to="30605198"/>
 <trip depart="684.0" departLane="best" departSpeed="max" from="-75567703#1" id="rs_c001_i000_1321" to="-75567703#0"/>
 <trip depart="686.0" departLane="best" departSpeed="max" from="-24031456#1" id="rs_c000_i000_7634" to="118155452#1"/>
 <trip depart="692.0" departLane="best" departSpeed="max" from="51340803#1" id="rs_c001_i000_1248" to="166533651"/>
 <trip depart="694.86" departLane="best" departSpeed="max" from="35703215" id="rs_c000_i000_5704" to="1075704928#2"/>
 <trip depart="696.0" departLane="best" departSpeed="max" from="-24399330#1" id="rs_c000_i000_6283" to="-24399330#0"/>
 <trip depart="696.0" departLane="best" departSpeed="max" from="-33826299" id="rs_c000_i001_1065" to="-138037521"/>
 <trip depart="699.0" departLane="best" departSpeed="max" from="-300060711" id="rs_c000_i000_7798" to="24821927#1"/>
 <trip depart="700.0" departLane="best" departSpeed="max" from="-28840232#1" id="rs_c000_i000_7811" to="-26040294#3"/>
 <trip depart="701.0" departLane="best" departSpeed="max" from="-35606385#0" id="rs_c001_i000_105" to="30257050"/>
 <trip depart="702.0" departLane="best" departSpeed="max" from="301503276" id="rs_c001_i000_1339" to="35061795"/>
 <trip depart="703.0" departLane="best" departSpeed="max" from="-626942404#0" id="rs_c000_i000_7805" to="-34776024"/>
 <trip depart="710.0" departLane="best" departSpeed="max" from="-16626712" id="rs_c001_i000_1355" to="-306713165"/>
 <trip depart="711.0" departLane="best" departSpeed="max" from="-234088653#0" id="rs_c000_i000_7914" to="136867909"/>
 <trip depart="716.0" departLane="best" departSpeed="max" from="-79690674#0" id="rs_c000_i001_999" to="30326560"/>
 <trip depart="720.94" departLane="best" departSpeed="max" from="30471452#0" id="rs_c000_i001_210" to="26349747#0"/>
 <trip depart="721.83" departLane="best" departSpeed="max" from="240100844#0" id="rs_c000_i000_4652" to="240100844#1"/>
 <trip depart="722.0" departLane="best" departSpeed="max" from="125828734" id="rs_c000_i000_2107" to="340206715"/>
 <trip depart="723.81" departLane="best" departSpeed="max" from="58097865" id="rs_c000_i000_1591" to="30015227"/>
 <trip depart="732.0" departLane="best" departSpeed="max" from="39300458#1" id="rs_c000_i000_8167" to="-217695970#0"/>
 <trip depart="733.18" departLane="best" departSpeed="max" from="30471452#0" id="rs_c001_i000_592" to="26349747#0"/>
 <trip depart="734.0" departLane="best" departSpeed="max" from="-84639212" id="rs_c000_i000_8183" to="-366308474"/>
 <trip depart="743.04" departLane="best" departSpeed="max" from="30471452#0" id="rs_c000_i000_2500" to="26349747#0"/>
 <trip depart="746.67" departLane="best" departSpeed="max" from="93670626" id="rs_c001_i000_107" to="624417041"/>
 <trip depart="748.8" departLane="best" departSpeed="max" from="58097865" id="rs_c000_i000_3523" to="30015227"/>
 <trip depart="751.14" departLane="best" departSpeed="max" from="58097865" id="rs_c001_i001_97" to="30015227"/>
 <trip depart="752.81" departLane="best" departSpeed="max" from="38674850" id="rs_c000_i000_1535" to="148927038"/>
 <trip depart="753.0" departLane="best" departSpeed="max" from="24031456#4" id="rs_c001_i002_19" to="24031456#5"/>
 <trip depart="767.0" departLane="best" departSpeed="max" from="-95937728#1" id="rs_c000_i000_6853" to="-95937728#0"/>
 <trip depart="767.0" departLane="best" departSpeed="max" from="30141563" id="rs_c000_i000_8551" to="126449238"/>
 <trip depart="768.0" departLane="best" departSpeed="max" from="30471452#0" id="rs_c000_i001_727" to="26349747#0"/>
 <trip depart="770.0" departLane="best" departSpeed="max" from="219528064" id="rs_c001_i000_1455" to="126449221#0"/>
 <trip depart="771.0" departLane="best" departSpeed="max" from="-117656067#0" id="rs_c000_i000_8596" to="-117656063#0"/>
 <trip depart="772.0" departLane="best" departSpeed="max" from="-211208696#0" id="rs_c000_i000_7934" to="-839402626#0"/>
 <trip depart="772.0" departLane="best" departSpeed="max" from="-300981184#0" id="rs_c000_i000_8614" to="-4361947"/>
 <trip depart="772.0" departLane="best" departSpeed="max" from="-96809683#1" id="rs_c000_i000_8630" to="-96809683#0"/>
 <trip depart="776.0" departLane="best" departSpeed="max" from="-301127377" id="rs_c000_i000_8673" to="-159761036#1"/>
 <trip depart="776.0" departLane="best" departSpeed="max" from="83633194" id="rs_c000_i000_8675" to="1006265805#0"/>
 <trip depart="784.0" departLane="best" departSpeed="max" from="-211120148" id="rs_c000_i000_7434" to="-116049788#0"/>
 <trip depart="788.0" departLane="best" departSpeed="max" from="-95212556" id="rs_c000_i000_8815" to="-96809695#2"/>