<?xml version="1.0" encoding="utf-8"?>
<routes>
 <trip depart="4.0" departLane="best" departSpeed="max" from="-26037066" id="rs_c000_i000_49" to="58423646"/>
 <trip depart="5.0" departLane="best" departSpeed="max" from="-126709272#1" id="rs_c000_i000_57" to="102332984#0"/>
 <trip depart="7.0" departLane="best" departSpeed="max" from="5231759" id="rs_c000_i000_81" to="29970080#0"/>
 <trip depart="8.0" departLane="best" departSpeed="max" from="-52673136" id="rs_c000_i000_105" to="24429380-AddedOffRampEdge"/>
 <trip depart="13.0" departLane="best" departSpeed="max" from="-117654815#1" id="rs_c000_i000_148" to="25980639"/>
 <trip depart="18.0" departLane="best" departSpeed="max" from="-63134322#1" id="rs_c001_i000_31" to="117654824#0"/>
 <trip depart="22.0" departLane="best" departSpeed="max" from="-45578880" id="rs_c000_i000_260" to="39139679"/>
 <trip depart="24.0" departLane="best" departSpeed="max" from="219528064" id="rs_c001_i001_7" to="234899446"/>
 <trip depart="24.0" departLane="best" departSpeed="max" from="-117643614#1" id="rs_c000_i001_32" to="117654824#0"/>
 <trip depart="27.0" departLane="best" departSpeed="max" from="-74011129#0" id="rs_c000_i001_35" to="25980639"/>
 <trip depart="34.0" departLane="best" departSpeed="max" from="1080298604" id="rs_c001_i000_68" to="234899446"/>
 <trip depart="35.0" departLane="best" departSpeed="max" from="35605874#2" id="rs_c000_i000_411" to="-61984348"/>
 <trip depart="38.0" departLane="best" departSpeed="max" from="-62106322#0" id="rs_c000_i001_5_part1" to="25980639"/>
 <trip depart="41.0" departLane="best" departSpeed="max" from="4229427#1" id="rs_c001_i000_84" to="60727164#1"/>
 <trip depart="41.0" departLane="best" departSpeed="max" from="10557712" id="rs_c000_i000_475" to="1081179231"/>
 <trip depart="47.0" departLane="best" departSpeed="max" from="-122529096#6" id="rs_c000_i000_529" to="26187755#0"/>
 <trip depart="47.0" departLane="best" departSpeed="max" from="-136721671" id="rs_c000_i000_533" to="58423646"/>
 <trip depart="51.0" departLane="best" departSpeed="max" from="-61997814#0" id="rs_c000_i000_584" to="379527001"/>
 <trip depart="55.0" departLane="best" departSpeed="max" from="-61566225#0" id="rs_c000_i000_653" to="30471451"/>
 <trip depart="56.0" departLane="best" departSpeed="max" from="4273624" id="rs_c000_i000_657" to="1081179231"/>
 <trip depart="57.0" departLane="best" departSpeed="max" from="-290255303#2" id="rs_c000_i001_81" to="26187757#1"/>
 <trip depart="57.0" departLane="best" departSpeed="max" from="462046218" id="rs_c000_i000_673" to="38455846"/>
 <trip depart="57.0" departLane="best" departSpeed="max" from="24031456#4" id="rs_c000_i000_681" to="58423646"/>
 <trip depart="60.0" departLane="best" departSpeed="max" from="-15242127#1" id="rs_c000_i000_711" to="1081179231"/>
 <trip depart="61.0" departLane="best" departSpeed="max" from="47089824" id="rs_c000_i000_724" to="29970080#0"/>
 <trip depart="67.0" departLane="best" departSpeed="max" from="-83488868" id="rs_c001_i000_149" to="104147692"/>
 <trip depart="74.0" departLane="best" departSpeed="max" from="-95100609" id="rs_c000_i000_864" to="58423646"/>
 <trip depart="74.0" departLane="best" departSpeed="max" from="24487041" id="rs_c000_i000_865" to="-330920155"/>
 <trip depart="75.0" departLane="best" departSpeed="max" from="-237367748#2" id="rs_c000_i000_879" to="530282943"/>
 <trip depart="76.0" departLane="best" departSpeed="max" from="-211208696#0" id="rs_c000_i001_20" to="102332984#0"/>
 <trip depart="78.0" departLane="best" departSpeed="max" from="87397777" id="rs_c000_i000_896" to="362987791#0"/>
 <trip depart="78.0" departLane="best" departSpeed="max" from="-96809683#1" id="rs_c000_i000_912" to="58423646"/>
 <trip depart="79.0" departLane="best" departSpeed="max" from="-211208696#0" id="rs_c000_i000_161" to="102332984#0"/>
 <trip depart="81.0" departLane="best" departSpeed="max" from="51340803#1" id="rs_c000_i000_920" to="139124541#0"/>
 <trip depart="82.0" departLane="best" departSpeed="max" from="-5234278#1" id="rs_c000_i000_940" to="102332984#0"/>
 <trip depart="84.0" departLane="best" departSpeed="max" from="-117654815#3" id="rs_c000_i001_120" to="25980639"/>
 <trip depart="85.0" departLane="best" departSpeed="max" from="-188890214" id="rs_c000_i000_971" to="28377479#0"/>
 <trip depart="86.0" departLane="best" departSpeed="max" from="301503168#1" id="rs_c001_i000_69" to="35061798"/>
 <trip depart="86.0" departLane="best" departSpeed="max" from="-30141086#0" id="rs_c001_i000_186" to="38455846"/>
 <trip depart="91.0" departLane="best" departSpeed="max" from="51340803#1" id="rs_c001_i000_59" to="35062429#0"/>
 <trip depart="92.0" departLane="best" departSpeed="max" from="-328266345" id="rs_c000_i000_1050" to="102332984#0"/>
 <trip depart="98.0" departLane="best" departSpeed="max" from="-5234464" id="rs_c000_i000_1131" to="234899446"/>
 <trip depart="100.0" departLane="best" departSpeed="max" from="-328813517" id="rs_c001_i000_213" to="104147692"/>
 <trip depart="103.0" departLane="best" departSpeed="max" from="-4361529#0" id="rs_c001_i002_4" to="24428921"/>
 <trip depart="105.0" departLane="best" departSpeed="max" from="-211208696#0" id="rs_c001_i000_103" to="234899446"/>
 <trip depart="112.0" departLane="best" departSpeed="max" from="-95937728#1" id="rs_c000_i000_782_part1" to="144246396#1"/>
 <trip depart="119.0" departLane="best" departSpeed="max" from="301503168#1" id="rs_c001_i000_113" to="35061798"/>
 <trip depart="121.0" departLane="best" departSpeed="max" from="5091199" id="rs_c001_i000_246" to="34760663"/>
 <trip depart="123.0" departLane="best" departSpeed="max" from="126449231#0" id="rs_c001_i000_252" to="234899446"/>
 <trip depart="124.0" departLane="best" departSpeed="max" from="-122529094#5" id="rs_c000_i000_1409" to="144246396#1"/>
 <trip depart="124.0" departLane="best" departSpeed="max" from="4244655" id="rs_c000_i000_1413" to="102332984#0"/>
 <trip depart="125.0" departLane="best" departSpeed="max" from="5095190#0" id="rs_c000_i000_1423" to="34760663"/>
 <trip depart="126.0" departLane="best" departSpeed="max" from="-95937728#1" id="rs_c000_i000_508" to="144246396#1"/>
 <trip depart="127.0" departLane="best" departSpeed="max" from="136864086" id="rs_c000_i000_1442" to="58423646"/>
 <trip depart="130.0" departLane="best" departSpeed="max" from="-9604697" id="rs_c000_i000_1478" to="-330920155"/>
 <trip depart="131.0" departLane="best" departSpeed="max" from="-61371680#0" id="rs_c000_i000_1484" to="104147692"/>
 <trip depart="133.0" departLane="best" departSpeed="max" from="-79690674#0" id="rs_c000_i002_6" to="34760663"/>
 <trip depart="136.0" departLane="best" departSpeed="max" from="10559201" id="rs_c000_i001_200" to="35062429#0"/>
 <trip depart="142.0" departLane="best" departSpeed="max" from="26085515#5" id="rs_c000_i000_1609" to="58423646"/>
 <trip depart="143.0" departLane="best" departSpeed="max" from="-14994763" id="rs_c000_i000_1620" to="116049788#1"/>
 <trip depart="143.0" departLane="best" departSpeed="max" from="4492786" id="rs_c000_i000_1621" to="102332984#0"/>
 <trip depart="146.0" departLane="best" departSpeed="max" from="-328040089" id="rs_c000_i000_1649" to="5091199"/>
 <trip depart="149.0" departLane="best" departSpeed="max" from="-95937728#1" id="rs_c000_i000_253" to="144246396#1"/>
 <trip depart="151.0" departLane="best" departSpeed="max" from="-28918381#4" id="rs_c000_i000_1713" to="24405147"/>
 <trip depart="153.0" departLane="best" departSpeed="max" from="-79690674#0" id="rs_c001_i000_195" to="34760663"/>
 <trip depart="154.0" departLane="best" departSpeed="max" from="-95937943#2" id="rs_c000_i000_1419_part1" to="24428921"/>
 <trip depart="165.0" departLane="best" departSpeed="max" from="-234540368" id="rs_c000_i000_1853" to="38325510"/>
 <trip depart="169.0" departLane="best" departSpeed="max" from="-328813517" id="rs_c001_i000_320" to="234899446"/>
 <trip depart="170.7" departLane="best" departSpeed="max" from="-30471451" id="rs_c000_i001_157" to="60727164#1"/>
 <trip depart="171.0" departLane="best" departSpeed="max" from="462046218" id="rs_c001_i000_340" to="38455846"/>
 <trip depart="175.0" departLane="best" departSpeed="max" from="-95937943#0" id="rs_c000_i000_1956" to="58423646"/>
 <trip depart="176.0" departLane="best" departSpeed="max" from="8102482" id="rs_c000_i000_1965" to="24429380-AddedOffRampEdge"/>
 <trip depart="177.0" departLane="best" departSpeed="max" from="142497097" id="rs_c000_i000_1978" to="362987791#0"/>
 <trip depart="177.0" departLane="best" departSpeed="max" from="51856551#0" id="rs_c001_i000_348" to="30471451"/>
 <trip depart="178.63" departLane="best" departSpeed="max" from="-30471451" id="rs_c001_i000_46" to="102332984#0"/>
 <trip depart="187.0" departLane="best" departSpeed="max" from="14571550#1" id="rs_c000_i002_46" to="38455846"/>
 <trip depart="188.0" departLane="best" departSpeed="max" from="-644345091#0" id="rs_c001_i000_292" to="60727164#1"/>
 <trip depart="193.0" departLane="best" departSpeed="max" from="-211208696#0" id="rs_c001_i000_276" to="234899446"/>
 <trip depart="195.0" departLane="best" departSpeed="max" from="-10426011#1" id="rs_c000_i000_2147" to="139124541#0"/>
 <trip depart="197.0" departLane="best" departSpeed="max" from="-87397780" id="rs_c000_i001_293" to="1081179231"/>
 <trip depart="198.0" departLane="best" departSpeed="max" from="321098632#1" id="rs_c000_i000_2183" to="362987791#0"/>
 <trip depart="200.0" departLane="best" departSpeed="max" from="-136721672" id="rs_c000_i000_2199" to="26187757#1"/>
 <trip depart="201.0" departLane="best" departSpeed="max" from="-929213813" id="rs_c000_i000_2221" to="58423646"/>
 <trip depart="203.0" departLane="best" departSpeed="max" from="462046218" id="rs_c000_i000_2238" to="38455846"/>
 <trip depart="206.0" departLane="best" departSpeed="max" from="-4233644#2" id="rs_c000_i001_306" to="530282943"/>
 <trip depart="209.0" departLane="best" departSpeed="max" from="-765843955" id="rs_c000_i000_2309" to="362987791#0"/>
 <trip depart="212.0" departLane="best" departSpeed="max" from="-34149612#0" id="rs_c000_i000_2338" to="58423646"/>
 <trip depart="214.0" departLane="best" departSpeed="max" from="-313693701" id="rs_c000_i000_2368" to="39139679"/>
 <trip depart="214.0" departLane="best" departSpeed="max" from="-369150317#0" id="rs_c000_i000_2371" to="58423646"/>
 <trip depart="219.0" departLane="best" departSpeed="max" from="-62106322#0" id="rs_c000_i000_376" to="25980639"/>
 <trip depart="219.0" departLane="best" departSpeed="max" from="906802009" id="rs_c001_i000_425" to="234899446"/>
 <trip depart="224.0" departLane="best" departSpeed="max" from="-26127182#2" id="rs_c000_i000_2475" to="26187755#0"/>
 <trip depart="225.49" departLane="best" departSpeed="max" from="-30471451" id="rs_c001_i000_256" to="60727164#1"/>
 <trip depart="234.0" departLane="best" departSpeed="max" from="-61371685#0" id="rs_c000_i000_2581" to="104147692"/>
 <trip depart="238.0" departLane="best" departSpeed="max" from="117099147#0" id="rs_c000_i000_2613" to="58423646"/>
 <trip depart="238.0" departLane="best" departSpeed="max" from="-237837493#0" id="rs_c000_i000_2622" to="39139679"/>
 <trip depart="242.0" departLane="best" departSpeed="max" from="-10426171#1" id="rs_c001_i000_473" to="35062429#0"/>
 <trip depart="244.0" departLane="best" departSpeed="max" from="-122529102#3" id="rs_c000_i001_364" to="144246396#1"/>
 <trip depart="247.0" departLane="best" departSpeed="max" from="35061795" id="rs_c001_i000_480" to="38325510"/>
 <trip depart="250.0" departLane="best" departSpeed="max" from="59699456" id="rs_c000_i000_2742" to="39139679"/>
 <trip depart="257.0" departLane="best" departSpeed="max" from="-79690674#0" id="rs_c001_i000_132" to="30471451"/>
 <trip depart="259.8" departLane="best" departSpeed="max" from="-30471451" id="rs_c001_i000_172" to="60727164#1"/>
 <trip depart="260.0" departLane="best" departSpeed="max" from="-15242129#0" id="rs_c000_i001_391" to="38455846"/>
 <trip depart="262.0" departLane="best" departSpeed="max" from="-136721679#0" id="rs_c000_i000_2889" to="26187757#1"/>
 <trip depart="265.0" departLane="best" departSpeed="max" from="-63322102#1" id="rs_c000_i000_2907" to="25980639"/>
 <trip depart="265.0" departLane="best" departSpeed="max" from="-10372364#0" id="rs_c000_i001_402" to="102332984#0"/>
 <trip depart="266.0" departLane="best" departSpeed="max" from="-212694591" id="rs_c000_i000_2921" to="26187755#0"/>
 <trip depart="267.0" departLane="best" departSpeed="max" from="-211129670#0" id="rs_c001_i000_506" to="530282943"/>
 <trip depart="274.0" departLane="best" departSpeed="max" from="-95937728#1" id="rs_c000_i001_252" to="144246396#1"/>
 <trip depart="274.87" departLane="best" departSpeed="max" from="-30471451" id="rs_c000_i000_605" to="362987791#0"/>
 <trip depart="277.78" departLane="best" departSpeed="max" from="240100844#0" id="rs_c001_i000_160" to="530282943"/>
 <trip depart="279.0" departLane="best" departSpeed="max" from="-16345605#0" id="rs_c000_i001_424" to="139124541#0"/>
 <trip depart="285.0" departLane="best" departSpeed="max" from="-301127378" id="rs_c000_i001_435" to="35062429#0"/>
 <trip depart="290.0" departLane="best" departSpeed="max" from="-14434303" id="rs_c001_i000_551" to="35062429#0"/>
 <trip depart="293.0" departLane="best" departSpeed="max" from="237386917#0" id="rs_c000_i000_3233" to="-330920155"/>
 <trip depart="293.0" departLane="best" departSpeed="max" from="-78343357" id="rs_c000_i000_3235" to="117654824#0"/>
 <trip depart="295.0" departLane="best" departSpeed="max" from="4643592" id="rs_c000_i000_3244" to="234899446"/>
 <trip depart="296.0" departLane="best" departSpeed="max" from="62059875#1" id="rs_c001_i000_51" to="34760663"/>
 <trip depart="297.0" departLane="best" departSpeed="max" from="300981184#0" id="rs_c000_i000_3262" to="26187757#1"/>
 <trip depart="297.0" departLane="best" departSpeed="max" from="84656707#1" id="rs_c000_i000_3268" to="39139679"/>
 <trip depart="299.0" departLane="best" departSpeed="max" from="-24399330#1" id="rs_c001_i000_471" to="58423646"/>
 <trip depart="300.51" departLane="best" departSpeed="max" from="240100844#0" id="rs_c000_i001_171" to="530282943"/>
 <trip depart="303.0" departLane="best" departSpeed="max" from="-138350778#0" id="rs_c000_i000_3335" to="25980639"/>
 <trip depart="304.0" departLane="best" departSpeed="max" from="-125589533" id="rs_c001_i000_582" to="530282943"/>
 <trip depart="305.0" departLane="best" departSpeed="max" from="35772871" id="rs_c000_i002_65" to="24429380-AddedOffRampEdge"/>
 <trip depart="306.0" departLane="best" departSpeed="max" from="-96700281" id="rs_c000_i000_3372" to="286340278"/>
 <trip depart="308.0" departLane="best" departSpeed="max" from="-95937728#1" id="rs_c000_i001_397" to="144246396#1"/>
 <trip depart="309.0" departLane="best" departSpeed="max" from="-314422898#0" id="rs_c000_i000_3396" to="39139679"/>
 <trip depart="311.0" departLane="best" departSpeed="max" from="-290255303#2" id="rs_c000_i000_3424" to="26187757#1"/>
 <trip depart="313.0" departLane="best" departSpeed="max" from="-34776023#0" id="rs_c000_i001_484" to="26187757#1"/>
 <trip depart="316.0" departLane="best" departSpeed="max" from="-211208696#0" id="rs_c001_i000_417" to="24424238#0"/>
 <trip depart="317.34" departLane="best" departSpeed="max" from="58097865" id="rs_c001_i000_86" to="104147692"/>
 <trip depart="318.0" departLane="best" departSpeed="max" from="84656707#1" id="rs_c000_i000_3508" to="39139679"/>
 <trip depart="320.27" departLane="best" departSpeed="max" from="257423660#1" id="rs_c001_i000_187" to="30471451"/>
 <trip depart="321.0" departLane="best" departSpeed="max" from="-95937728#1" id="rs_c000_i000_2701" to="144246396#1"/>
 <trip depart="321.11" departLane="best" departSpeed="max" from="240100844#0" id="rs_c001_i000_49" to="530282943"/>
 <trip depart="323.36" departLane="best" departSpeed="max" from="38674850" id="rs_c001_i000_87" to="38674844"/>
 <trip depart="335.0" departLane="best" departSpeed="max" from="-101521565" id="rs_c000_i000_3685" to="117654824#0"/>
 <trip depart="342.0" departLane="best" departSpeed="max" from="61367425#1" id="rs_c000_i000_3760" to="24429380-AddedOffRampEdge"/>
 <trip depart="342.0" departLane="best" departSpeed="max" from="-314424813" id="rs_c000_i000_3765" to="362987791#0"/>
 <trip depart="343.0" departLane="best" departSpeed="max" from="5095166" id="rs_c001_i000_652" to="30471451"/>
 <trip depart="346.0" departLane="best" departSpeed="max" from="-122529110" id="rs_c000_i000_3802" to="144246396#1"/>
 <trip depart="347.0" departLane="best" departSpeed="max" from="-211208696#0" id="rs_c001_i000_536" to="234899446"/>
 <trip depart="348.0" departLane="best" departSpeed="max" from="-122529101" id="rs_c001_i000_660" to="26187755#0"/>
 <trip depart="355.0" departLane="best" departSpeed="max" from="-8394848" id="rs_c000_i002_77" to="39139679"/>
 <trip depart="356.0" departLane="best" departSpeed="max" from="5091197#0" id="rs_c000_i000_3899" to="104147692"/>
 <trip depart="358.0" departLane="best" departSpeed="max" from="86527638#1" id="rs_c000_i000_3936" to="1081179231"/>
 <trip depart="359.36" departLane="best" departSpeed="max" from="58097865" id="rs_c001_i000_363" to="104147692"/>
 <trip depart="361.0" departLane="best" departSpeed="max" from="79057000" id="rs_c000_i000_3966" to="60727164#1"/>
 <trip depart="363.0" departLane="best" departSpeed="max" from="-211120148" id="rs_c001_i000_523" to="35062429#0"/>
 <trip depart="363.0" departLane="best" departSpeed="max" from="-5230785" id="rs_c000_i000_3989" to="60727164#1"/>
 <trip depart="364.0" departLane="best" departSpeed="max" from="166533654#1" id="rs_c001_i000_690" to="35062429#0"/>
 <trip depart="364.25" departLane="best" departSpeed="max" from="58097865" id="rs_c001_i000_232" to="104147692"/>
 <trip depart="365.0" departLane="best" departSpeed="max" from="118864079#1" id="rs_c000_i000_4008" to="26187757#1"/>
 <trip depart="367.0" departLane="best" departSpeed="max" from="94107492" id="rs_c001_i000_696" to="234899446"/>
 <trip depart="368.0" departLane="best" departSpeed="max" from="4353778#1" id="rs_c000_i000_4037" to="58423646"/>
 <trip depart="368.0" departLane="best" departSpeed="max" from="-122529094#6" id="rs_c000_i001_567" to="26187755#0"/>
 <trip depart="368.93" departLane="best" departSpeed="max" from="257423660#1" id="rs_c001_i000_81" to="104147692"/>
 <trip depart="377.0" departLane="best" departSpeed="max" from="166533654#1" id="rs_c000_i000_4161" to="139124541#0"/>
 <trip depart="379.0" departLane="best" departSpeed="max" from="-211208696#0" id="rs_c001_i000_701" to="24424238#0"/>
 <trip depart="381.0" departLane="best" departSpeed="max" from="-212694591" id="rs_c000_i000_4215" to="26187755#0"/>
 <trip depart="382.0" departLane="best" departSpeed="max" from="-32016573" id="rs_c000_i000_4217" to="104147692"/>
 <trip depart="383.0" departLane="best" departSpeed="max" from="-14571550#0" id="rs_c000_i001_587" to="35062429#0"/>
 <trip depart="384.0" departLane="best" departSpeed="max" from="-58603104" id="rs_c000_i000_4247" to="117654824#0"/>
 <trip depart="384.96" departLane="best" departSpeed="max" from="30471452#0" id="rs_c000_i000_112" to="-61565232#0"/>
 <trip depart="386.0" departLane="best" departSpeed="max" from="24398203#1" id="rs_c000_i000_3987" to="58423646"/>
 <trip depart="388.0" departLane="best" departSpeed="max" from="-122529094#10" id="rs_c000_i000_4275" to="26187755#0"/>
 <trip depart="392.0" departLane="best" departSpeed="max" from="-28918381#0" id="rs_c000_i000_4344" to="24429380-AddedOffRampEdge"/>
 <trip depart="392.52" departLane="best" departSpeed="max" from="-30471451" id="rs_c000_i001_369" to="60727164#1"/>
 <trip depart="394.0" departLane="best" departSpeed="max" from="-52291443" id="rs_c001_i000_753" to="530282943"/>
 <trip depart="394.0" departLane="best" departSpeed="max" from="83488871" id="rs_c001_i000_754" to="234899446"/>
 <trip depart="400.0" departLane="best" departSpeed="max" from="-121411748#1" id="rs_c000_i000_4388" to="117654824#0"/>
 <trip depart="400.0" departLane="best" departSpeed="max" from="-95799435" id="rs_c000_i001_619" to="362987791#0"/>
 <trip depart="402.0" departLane="best" departSpeed="max" from="-122529096#7" id="rs_c000_i000_4462" to="26187755#0"/>
 <trip depart="402.94" departLane="best" departSpeed="max" from="-30471451" id="rs_c000_i000_2648" to="60727164#1"/>
 <trip depart="403.12" departLane="best" departSpeed="max" from="-30471451" id="rs_c001_i000_210" to="61367454#1"/>
 <trip depart="406.0" departLane="best" departSpeed="max" from="-26040294#1" id="rs_c000_i000_4507" to="58423646"/>
 <trip depart="406.25" departLane="best" departSpeed="max" from="30471452#0" id="rs_c000_i000_174" to="60727164#1"/>
 <trip depart="408.0" departLane="best" departSpeed="max" from="-61367419#0" id="rs_c000_i000_4524" to="24429380-AddedOffRampEdge"/>
 <trip depart="409.4" departLane="best" departSpeed="max" from="30471452#0" id="rs_c000_i000_413" to="5095206"/>
 <trip depart="410.0" departLane="best" departSpeed="max" from="-74011129#0" id="rs_c000_i000_4548" to="117654824#0"/>
 <trip depart="411.0" departLane="best" departSpeed="max" from="5234573#1" id="rs_c000_i000_4561" to="29970080#0"/>
 <trip depart="413.0" departLane="best" departSpeed="max" from="-118155450" id="rs_c000_i000_4591" to="26187757#1"/>
 <trip depart="414.0" departLane="best" departSpeed="max" from="95916459" id="rs_c000_i001_632" to="35062429#0"/>
 <trip depart="416.0" departLane="best" departSpeed="max" from="136721679#0" id="rs_c000_i000_4626" to="24428921"/>
 <trip depart="416.0" departLane="best" departSpeed="max" from="-95212556" id="rs_c000_i000_4637" to="26187757#1"/>
 <trip depart="421.0" departLane="best" departSpeed="max" from="133104420#0" id="rs_c000_i000_4636" to="362987791#0"/>
 <trip depart="422.0" departLane="best" departSpeed="max" from="-210457775#1" id="rs_c000_i000_4689" to="102332984#0"/>
 <trip depart="422.0" departLane="best" departSpeed="max" from="8394862" id="rs_c000_i000_4693" to="39139679"/>
 <trip depart="422.89" departLane="best" departSpeed="max" from="240100844#0" id="rs_c000_i000_2155" to="530282943"/>
 <trip depart="423.0" departLane="best" departSpeed="max" from="631862806" id="rs_c001_i000_812" to="234899446"/>
 <trip depart="424.0" departLane="best" departSpeed="max" from="24423960" id="rs_c000_i000_4718" to="34760663"/>
 <trip depart="429.0" departLane="best" departSpeed="max" from="-26040294#1" id="rs_c000_i001_665" to="24399330#1"/>
 <trip depart="430.0" departLane="best" departSpeed="max" from="-87397772" id="rs_c001_i000_834" to="26379010#0"/>
 <trip depart="430.0" departLane="best" departSpeed="max" from="-83510232#0" id="rs_c001_i001_103" to="234899446"/>
 <trip depart="430.0" departLane="best" departSpeed="max" from="-26165754#2" id="rs_c000_i000_4783" to="24428921"/>
 <trip depart="430.0" departLane="best" departSpeed="max" from="-117649887" id="rs_c000_i001_666" to="138914231#0"/>
 <trip depart="430.39" departLane="best" departSpeed="max" from="-30471451" id="rs_c000_i000_2866" to="60727164#1"/>
 <trip depart="431.0" departLane="best" departSpeed="max" from="-23960853#0" id="rs_c000_i000_4802" to="138914231#0"/>
 <trip depart="432.39" departLane="best" departSpeed="max" from="-30471451" id="rs_c000_i000_2587" to="362987791#0"/>
 <trip depart="433.0" departLane="best" departSpeed="max" from="118155456#0" id="rs_c000_i000_4816" to="58423646"/>
 <trip depart="434.62" departLane="best" departSpeed="max" from="29508075#2" id="rs_c000_i000_1243_part1" to="132793806"/>
 <trip depart="435.33" departLane="best" departSpeed="max" from="-30471451" id="rs_c000_i001_467" to="362987791#0"/>
 <trip depart="437.0" departLane="best" departSpeed="max" from="118869284#0" id="rs_c001_i000_848" to="26187755#0"/>
 <trip depart="437.0" departLane="best" departSpeed="max" from="14566949" id="rs_c000_i000_4863" to="38455846"/>
 <trip depart="437.0" departLane="best" departSpeed="max" from="-4232328" id="rs_c000_i000_4872" to="530282943"/>
 <trip depart="437.0" departLane="best" departSpeed="max" from="644345097" id="rs_c000_i001_678" to="1081179231"/>
 <trip depart="439.0" departLane="best" departSpeed="max" from="56253839" id="rs_c001_i000_853" to="25980639"/>
 <trip depart="439.0" departLane="best" departSpeed="max" from="4361529#1" id="rs_c000_i000_4895" to="26187757#1"/>
 <trip depart="439.0" departLane="best" departSpeed="max" from="97097111#1" id="rs_c000_i000_4896" to="234899446"/>
 <trip depart="442.56" departLane="best" departSpeed="max" from="30471452#0" id="rs_c000_i000_654" to="60727164#1"/>
 <trip depart="443.0" departLane="best" departSpeed="max" from="-122529096#5" id="rs_c000_i000_4939" to="26187755#0"/>
 <trip depart="443.0" departLane="best" departSpeed="max" from="-212694590" id="rs_c000_i000_4941" to="144246396#1"/>
 <trip depart="445.52" departLane="best" departSpeed="max" from="-30471451" id="rs_c000_i000_2251" to="60727164#1"/>
 <trip depart="448.0" departLane="best" departSpeed="max" from="-57078728" id="rs_c000_i000_4997" to="24429380-AddedOffRampEdge"/>
 <trip depart="450.0" departLane="best" departSpeed="max" from="-14573382#0" id="rs_c000_i000_5011" to="35062429#0"/>
 <trip depart="451.0" departLane="best" departSpeed="max" from="4250371" id="rs_c000_i000_5031" to="362987791#0"/>
 <trip depart="452.0" departLane="best" departSpeed="max" from="-32016576#0" id="rs_c001_i000_876" to="-1052613455"/>
 <trip depart="452.0" departLane="best" departSpeed="max" from="-84639207" id="rs_c001_i000_877" to="234899446"/>
 <trip depart="455.0" departLane="best" departSpeed="max" from="24031456#6" id="rs_c001_i000_886" to="58423646"/>
 <trip depart="455.81" departLane="best" departSpeed="max" from="35703215" id="rs_c000_i001_162" to="25980639"/>
 <trip depart="459.0" departLane="best" departSpeed="max" from="118864084" id="rs_c000_i000_5134" to="58423646"/>
 <trip depart="460.0" departLane="best" departSpeed="max" from="-4485415" id="rs_c000_i000_5151" to="1081179231"/>
 <trip depart="464.0" departLane="best" departSpeed="max" from="-24399330#1" id="rs_c001_i000_766" to="58423646"/>
 <trip depart="464.0" departLane="best" departSpeed="max" from="125351183" id="rs_c000_i000_5206" to="26187755#0"/>
 <trip depart="465.0" departLane="best" departSpeed="max" from="-4232328" id="rs_c000_i000_5217" to="530282943"/>
 <trip depart="465.13" departLane="best" departSpeed="max" from="62059875#1" id="rs_c000_i000_4116" to="34760663"/>
 <trip depart="465.6" departLane="best" departSpeed="max" from="30471452#0" id="rs_c000_i000_1202" to="60727164#1"/>
 <trip depart="466.0" departLane="best" departSpeed="max" from="-95937728#1" id="rs_c000_i000_3350" to="144246396#1"/>
 <trip depart="466.0" departLane="best" departSpeed="max" from="-32016029#2" id="rs_c000_i000_5229" to="-26341966#1"/>
 <trip depart="469.0" departLane="best" departSpeed="max" from="126449221#0" id="rs_c000_i001_720" to="1081179231"/>
 <trip depart="470.0" departLane="best" departSpeed="max" from="117099159#0" id="rs_c000_i000_4621" to="58423646"/>
 <trip depart="471.0" departLane="best" departSpeed="max" from="-95937728#1" id="rs_c000_i000_4133" to="144246396#1"/>
 <trip depart="474.0" departLane="best" departSpeed="max" from="183247520" id="rs_c000_i001_730" to="35062429#0"/>
 <trip depart="481.0" departLane="best" departSpeed="max" from="328253310#1" id="rs_c000_i000_5374" to="102332984#0"/>
 <trip depart="482.81" departLane="best" departSpeed="max" from="30471452#0" id="rs_c000_i000_458" to="234899446"/>
 <trip depart="484.0" departLane="best" departSpeed="max" from="-211129670#0" id="rs_c001_i000_937" to="530282943"/>
 <trip depart="485.0" departLane="best" departSpeed="max" from="-83488868" id="rs_c000_i000_5410" to="234899446"/>
 <trip depart="485.0" departLane="best" departSpeed="max" from="1010508082" id="rs_c000_i000_5412" to="39139679"/>
 <trip depart="487.32" departLane="best" departSpeed="max" from="-30471451" id="rs_c000_i000_4219" to="1081179231"/>
 <trip depart="489.0" departLane="best" departSpeed="max" from="-57726375#2" id="rs_c000_i001_752" to="26187757#1"/>
 <trip depart="491.03" departLane="best" departSpeed="max" from="35703215" id="rs_c000_i000_126" to="117654824#0"/>
 <trip depart="492.0" departLane="best" departSpeed="max" from="25976329#1" id="rs_c000_i001_756" to="34776006"/>
 <trip depart="492.38" departLane="best" departSpeed="max" from="58097865" id="rs_c000_i000_88" to="24429380-AddedOffRampEdge"/>
 <trip depart="493.48" departLane="best" departSpeed="max" from="38674850" id="rs_c001_i000_133" to="38674844"/>
 <trip depart="497.0" departLane="best" departSpeed="max" from="83510232#1" id="rs_c000_i000_5549" to="39139679"/>
 <trip depart="501.0" departLane="best" departSpeed="max" from="-62106322#0" id="rs_c001_i000_720" to="1081179231"/>
 <trip depart="501.0" departLane="best" departSpeed="max" from="-136864084#1" id="rs_c000_i000_5581" to="24428921"/>
 <trip depart="502.0" departLane="best" departSpeed="max" from="4273623" id="rs_c000_i000_5599" to="234899446"/>
 <trip depart="504.0" departLane="best" departSpeed="max" from="-314426030#0" id="rs_c000_i000_5617" to="234899446"/>
 <trip depart="505.0" departLane="best" departSpeed="max" from="-95937728#1" id="rs_c000_i000_4528" to="144246396#1"/>
 <trip depart="506.0" departLane="best" departSpeed="max" from="-169313833#2" id="rs_c001_i000_977" to="144246396#1"/>
 <trip depart="508.0" departLane="best" departSpeed="max" from="117099156#1" id="rs_c001_i000_982" to="58423646"/>
 <trip depart="509.0" departLane="best" departSpeed="max" from="4229427#2" id="rs_c000_i000_5668" to="234899446"/>
 <trip depart="513.6" departLane="best" departSpeed="max" from="58097865" id="rs_c000_i000_1838" to="24429380-AddedOffRampEdge"/>
 <trip depart="517.0" departLane="best" departSpeed="max" from="26040294#2" id="rs_c000_i000_5761" to="58423646"/>
 <trip depart="517.0" departLane="best" departSpeed="max" from="35062276" id="rs_c000_i000_5763" to="104147692"/>