<?xml version="1.0" encoding="UTF-8"?>

<!-- generated on 2022-11-01 17:31:30.139644 by edgesInDistricts.py UNKNOWN
  options: -n sumo_files/whole_area.net.xml -t sumo_files/helsinki_borders.poly.xml -o sumo_files/helsinki_edges.taz.xml
-->

<tazs xmlns:xsi="http://www.w3.org/2001/XMLSchema-instance" xsi:noNamespaceSchemaLocation="http://sumo.dlr.de/xsd/taz_file.xsd">
    <taz id="po_helsinki" edges="-100016823#0 -100016823#1 -100016823#2 -100016823#3 -100018560 -100018562 -100018564 -100018566#0 -100018566#1 -100018567 -100018570#0 -100018570#1 -100073149 -100074572#0 -100074572#1 -1005012677 -100721228 -101154827 -101155234#1 -101156265#0 -101156620#0 -101156625#0 -101156627#0 -101158310 -101372204 -101372210#0 -101372216 -101372218 -101376874#0 -101486395 -101491046 -101520672 -101521565 -101521569#0 -101696905#0 -101731771 -1020560683 -1020560684 -1021293719 -1021293720#0 -1022514468 -1022572939 -102278339 -102282708#0 -1023323198#0 -1023323206 -102337972 -1023390769#0 -1024008463 -1029363542 -10314886 -103302383#2 -103304620 -1033175307 -10357193 -10357406#1 -10357406#2 -10363301 -10363317 -10363538 -10363546 -10363555 -10372364#0 -10372364#1 -10372376 -10372461 -10373960 -10374052 -10374120 -10377153#1 -1040326466 -10405223#0 -10405223#1 -10405292 -10405419 -1040558867 -1040558871#0 -1040558872#0 -10405686 -1040827727 -1040827728 -1040827734 -1040827736 -1041468802 -1041615758 -1041615760 -10420511 -10420618 -10420635#1 -10420716 -10421231 -10425852 -10425858 -10425883 -10426011#1 -10426021#1 -10426031#1 -10426053#1 -10426053#2 -10426053#3 -10426057 -10426113#0 -10426171#0 -10426171#1 -10426173 -10426204#0 -10426204#1 -10426219 -10436546 -1044377735 -104488051 -1047696232 -1047696233 -1047704494 -1047706263 -1047706264 -104802039 -10500850 -10500974 -10501671 -10501707 -10502291#1 -1050700447 -1050700448 -10508541 -10508719 -10508974#0 -10509023 -10516147#0 -10516147#1 -10516147#2 -10516236 -10516368 -10516453 -10516873 -10518945 -10519190 -10519431 -105208819 -105208820#0 -1052271782#1 -1052613455 -105261685 -1054193549 -1054290416 -1054494537 -1054494538 -10557968 -10558007#0 -10558102 -10558824 -10559035 -10559379 -10560448#0 -10560448#1 -10560448#2 -10560462 -10560471 -10560519 -10560541#0 -10560541#1 -10560541#2 -10560572#0 -10560572#1 -10560592 -10560633 -10560646#0 -10560646#1 -10560657 -10560678 -10560697#1 -10560697#2 -10560697#3 -10560705 -10560708 -10560717 -10560720 -10560792 -10560902#0 -10560982 -10560988 -10560992#0 -10560992#1 -10561496 -10561499 -10561507 -10561515#0 -10561515#1 -10561523 -10561558 -10561570 -10561579#0 -10561579#1 -10561588 -10561595 -10561619 -10561628 -10561641 -10561708 -10561826 -10561827 -10561865 -10561967#0 -10561967#1 -10561982 -10562027 -10563468#0 -10563468#1 -10563483#0 -10563483#1 -10563483#2 -10563483#3 -10563483#4 -10563505 -10563521 -10563525 -10563604 -10563616 -10563653#0 -10563653#1 -10563863 -10563915 -10564001 -10564033 -10564119 -10564143#0 -10564143#1 -10564161 -10564264#0 -10564264#1 -10564323 -10564334 -10564386 -10564414 -10564419#1 -10564419#3 -10564421#0 -10564421#1 -10564424 -10564525 -10564549#1 -10564609 -10564614 -10564622 -10564679 -10564687#0 -10564687#1 -10564687#2 -10564697 -10564715 -10564729 -10564836 -10564838#0 -10564838#1 -10564868 -10564905#0 -10564905#1 -10564917#0 -10564917#1 -10564917#2 -10564940 -10564977 -10564991 -10565000 -10565030 -10565042 -10565051 -1058465552 -1058465553 -1058773187 -106089939#0 -106089939#1 -106089939#2 -106089939#3 -106089939#4 -1061462397#0 -1061462397#1 -1064893309 -1066551973 -1066551974 -1067707060#0 -1067707060#1 -1067707060#2 -1067707060#3 -1067707060#4 -1067707060#5 -1067707062#0 -1067707062#1 -1067707062#2 -1067707062#3 -1067707063#0 -1067707063#1 -1067707063#2 -1067707063#3 -1067707064#0 -1067707064#1 -1067707064#2 -1067707064#3 -1067707065#0 -1067707065#1 -1067707065#2 -1067707065#3 -1067712842#0 -1067712842#1 -1067712842#2 -1068887496 -1069054067 -1069537191 -107356080 -107356084 -107356086#0 -107364734#0 -107377064 -107378079 -107378081 -1073946366 -10742117#0 -107537804#0 -107537804#1 -107537804#2 -1075684663#0 -1075684663#1 -1076691210 -107679433 -107680682 -107681116#0 -107681117 -107681119#0 -107681126#0 -107681127#0 -107681198#0 -1076834854 -107736956#0 -107736956#1 -107736956#2 -107736964 -107747113#0 -107747148 -107747661 -107749952#1 -107754365 -107754367#0 -107754367#1 -107756075 -107756077 -107756082 -107756096 -1077609055 -1077879312#0 -1077879312#1 -10784078#0 -10784078#1 -10784959 -10785538 -10785567 -107896656 -107896664#0 -107896667 -107899574 -107899626 -107899631 -107899632 -107913816#0 -107920913 -1080290022 -108031332 -108031782#0 -108032875 -108033434 -108037095 -108037098 -108037102 -108072640#0 -108072695 -108072737 -108074474 -108077284 -108077299 -108081185#0 -108081191#0 -108081191#1 -108091399 -108091400 -108091401 -108091408 -108098652 -108151814 -108151815 -108151818#0 -108151818#1 -108151819#0 -108153024 -108153026 -108153227 -108153584 -108153586#0 -108153586#1 -108153586#2 -108154330#0 -108154330#1 -108154332 -108200114 -108200235 -108200238 -108200334 -108200541 -108202326 -108202327 -108202488 -108248420 -108248421 -108251691#0 -108251692 -108252752 -108253382 -108253397 -108262960 -108262963#0 -108262976 -108262993#0 -108315628 -108317852 -108317853 -108317856 -108317859 -108317860#0 -108323051 -108323052 -108323055 -108328668#0 -108328668#1 -108329023 -108329524 -108329542 -108336183#0 -108336183#1 -108336183#2 -108336183#3 -108340596 -108371217 -108372265 -108372267 -108436036 -108436191#0 -108436421 -108436855 -108440565 -108440566 -108440567#0 -108440567#1 -108440567#2 -108443219#0 -108443226 -108443729 -108443732 -108444559 -108492373 -108492697 -108492701 -108492707 -108492711 -108501637#0 -108501665 -108501685#0 -108501712 -108504383 -108505618 -108505622 -108506703#0 -108506703#1 -108507715 -108507716 -108508535 -108509404 -108958678#0 -108958680 -108958681 -108965739#0 -108965747 -109090821#0 -109090821#1 -109090832 -109260055 -109355403 -109355404 -109355408#0 -109355414 -109374478#0 -109374480#0 -109374480#1 -109374480#2 -109377155#0 -109380698#0 -109380698#1 -109380699#0 -109380699#1 -109380700#0 -109380700#2 -109380701#0 -109790555 -109790556 -109790557#0 -109790557#1 -109790557#2 -109790559 -109792010 -109792014 -109792015 -109792017 -109792943 -109792945 -109794983 -109794987#0 -109794988#0 -109794988#1 -109794989 -109795001 -109795007 -109800427 -11012624 -110183185 -110183491 -110183505 -110183738#0 -110183739 -110183741#0 -110297061#0 -110297062 -110430658 -110436741 -110436749 -110436752 -110586562 -110586563 -110586567 -110586572 -110586582 -110586588 -110586591 -11070307#2 -110778332 -110778862 -11102857 -111706907 -111720720 -111720721 -111720726#0 -111727937#2 -111737693 -111748818 -111748820#0 -111750602 -111750604 -111751762 -111757774 -111757781 -112051252 -112451183 -112518623 -112819043 -112819050 -112892715 -112892716 -112892717 -112897646#0 -112897646#1 -113586378 -113586381#0 -113586381#1 -113586390#0 -113586390#1 -113586393 -113586395 -113586396#0 -113586396#1 -113586396#2 -113586396#3 -113586396#4 -113586396#5 -113586399#0 -113586402#0 -113586402#1 -113586402#2 -113586402#3 -113586402#4 -113586402#5 -113586408#0 -113586408#1 -113586411 -113586414#0 -113586414#1 -113586418 -113586420 -113586428 -113586430#0 -113586430#1 -113586431 -113747121 -114183032 -114554759#0 -114554779#0 -114554800 -114554802#2 -114557570 -114789935 -115221967#0 -115221967#1 -115221969 -115222033 -115222258 -115222260#0 -115222260#1 -115222262 -115223088 -115223094 -115223095 -115223096 -115223100 -115317806#0 -115317806#1 -115606975 -115606987 -115607261 -115672929 -115674452#0 -115674452#2 -115674455 -115675314 -115675319 -115715004 -115796376 -115796539 -115798779#0 -115798784#0 -115798787#0 -115799539 -115837848#0 -115837848#1 -115837849#0 -115837849#1 -115838806 -115838817 -115838820 -115838822#0 -115838825 -115838827 -115838835 -115838838 -115838842#0 -115838842#1 -115838842#2 -115838842#3 -115838847 -115838849#0 -115838849#1 -115838849#2 -115838850 -115915280#0 -115915280#1 -115915281 -115916066 -115916067 -115916068#0 -115916072 -115916073 -115916074#0 -116049438 -116049439#0 -116049439#1 -116049442 -116049443#0 -116049443#1 -116049443#2 -116049443#3 -116049444#0 -116049444#1 -116049788#0 -116081179 -116081188#0 -116081194 -116084418 -116084424 -116084426 -116085111 -116363379 -116363505 -116394099#0 -116399245 -116399254 -116400265 -116400267 -116400269#0 -116401863 -116585422 -116600517 -116609541 -116610243 -116623856 -116623858 -116624222 -116624709 -116625243 -116625246#0 -116625246#1 -116625246#2 -116625247 -116625253 -116625254 -116625381 -116625382 -116625383 -116626853 -116637730 -116637733 -116644651#0 -116644668 -116644699 -116644708 -116644709#0 -116644717 -116644718 -116645513 -116645514#0 -116645516 -116697126 -116697456 -116697457 -116697652 -116697653 -116697661#0 -116697668#0 -116697670 -116697672#1 -116697674 -116712800#0 -116712800#1 -116760899#0 -116760904 -116760907 -116761033 -116761602#0 -116761603 -116761605 -116761607#0 -116761613 -116766885 -116766889 -116767653 -116800848 -116801452 -116801454 -116801457 -116801458#0 -116801461 -116801463#0 -116801463#1 -116801470 -116801472 -116801860 -116913887 -116913894 -116913907 -116913908#0 -116913908#1 -116913908#2 -116913910 -116913912 -116913914#0 -116913915 -116913921 -116913922#0 -116913923#0 -116913925 -116918298 -116918307 -116918320#0 -116918320#1 -116918328 -116918331 -116918332#0 -116918336 -116918341#0 -116918701 -116920214 -116920219#0 -116920219#1 -116920225 -116921290 -116921291 -116927836 -116927878 -116927889 -117047959 -117047960 -117047966 -117047967 -117048251 -117048254 -117048260 -117052113#0 -117052118 -117052125 -117052129 -117052141 -117052147 -117052150 -117052152 -117057367 -117057368 -117058060#0 -117058060#1 -117058061 -117058065 -117093566#0 -117093567 -117093568 -117093571 -117093574 -117099133 -117099136 -117099138#0 -117099138#1 -117099138#2 -117099142 -117099146#0 -117099146#1 -117099147#0 -117099147#2 -117099151 -117099153 -117099156#0 -117099156#1 -117099156#2 -117099159#0 -117099159#1 -117099159#2 -117099159#3 -117099159#4 -117099159#5 -117099170 -117251724 -117253309 -117253976 -117351451 -117351512 -117355642 -117367663 -117379249#0 -117379249#1 -117463197 -117463200 -117463201 -117463202 -117464022 -117464032 -117538601 -117541439 -117541447 -117541455 -117541465#0 -117552697 -117552701#0 -117552713 -117589020 -117589021 -117589022#0 -117589022#1 -117589022#2 -117589022#3 -117589024 -117590604 -117590606 -117590607 -117590609 -117590612 -117590613 -117590614 -117615445 -117617098 -117623505 -117623507 -117624636#0 -117624636#1 -117624637#0 -117624637#1 -117625588 -117625593 -117626378 -117626379 -117626380 -117626381 -117626823#0 -117626823#1 -117626824 -117626826 -117631282 -117631287#0 -117631287#1 -117631290 -117631291#0 -117631291#1 -117631292 -117632023 -117632809 -117639101#0 -117639101#1 -117643608 -117643614#0 -117643614#1 -117643616 -117643622 -117643624 -117649850#0 -117649850#1 -117649858 -117649862#0 -117649862#1 -117649862#2 -117649868 -117649887 -117654815#0 -117654815#1 -117654815#2 -117654815#3 -117654817 -117654819#0 -117654819#1 -117654826 -117656063#0 -117656063#1 -117656067#0 -117656067#1 -117928709 -117928711 -117928713 -117928714 -117928747 -117928749 -117928751 -117929960#0 -117929966 -117929971 -117930010 -117930012 -117930614 -117930618 -117934674 -117934675#0 -117934678 -117934679 -117934839 -118006367 -118006381 -118008002 -118008031 -118008076 -118008652 -118155448 -118155450 -118155452#0 -118155452#1 -118155453 -118155456#0 -118155456#1 -118155456#2 -118155460 -118272280 -118272283#0 -118272283#1 -118272284 -118272285 -118272489 -118272490 -118272794 -118272795 -118272796 -118272928 -118272929#0 -118272929#1 -118272929#2 -118272929#3 -118426253 -118426255 -118426257 -118426592 -118427193 -118427195 -118427196#0 -118427196#1 -118427197 -118427199#0 -118427199#1 -118427200 -118427202 -118427204#0 -118427204#1 -118427204#2 -118427205 -118427206#0 -118427206#1 -118427207 -118427208 -118427209 -118523882 -118563707#0 -118563710 -118563713 -118563727 -118563735 -118563738#0 -118563738#1 -118564771 -118564772#0 -118564772#1 -118564772#2 -118564772#3 -118564773#0 -118564774 -118564775#0 -118564775#1 -118564777#0 -118564777#1 -118564777#2 -118564777#3 -118564779#0 -118564779#1 -118564779#3 -118565804 -118565811 -118567100 -118567103 -118567112 -118607084 -118607086 -118607093 -118607096 -118649883#0 -118649883#2 -118649883#3 -118650793#0 -118650793#1 -118864079#0 -118864079#1 -118864079#2 -118864079#3 -118864079#4 -118864084 -118864085 -118869284#0 -118869284#1 -118869285 -118869287 -119051524 -119051525 -119051526#0 -119051526#1 -119051526#2 -119051527 -119051529#0 -119051529#1 -119051529#2 -119051530 -119051531 -119051533 -119051535 -119051537 -119051538 -119051539#0 -119051539#1 -119051540#1 -119814771#0 -119814771#1 -120083108#0 -120083108#1 -120087695 -120089156#0 -120089156#1 -120089158 -120134174 -120134180#0 -120134182 -120134184 -120134185#0 -120134189 -120134197 -120134207 -120134208 -120134210 -120134212 -120303125 -120303139 -120303140 -120315096 -120426790 -120464288 -120467576 -120467592 -120467616#0 -121411748#1 -121411749#0 -121411752 -121411754 -121472542 -121497105 -121497107 -121497111#0 -121497129 -121497132 -121522241 -121522242 -121527036 -121527239 -121572565 -121572569 -121573301 -121659800 -121659801#0 -121666776 -121666779 -121666781 -121666783 -121666791#0 -121666791#1 -121666791#2 -121666798 -121666800 -121677790#0 -121677790#1 -121677791 -121767315 -121767318 -121806101#0 -121806111 -121806115 -121806125#0 -121806125#1 -121806126 -121806129 -121806137 -121806138 -121806141 -121806144 -121929024 -122388448#0 -122388448#1 -122398104 -122417754 -122529094#0 -122529094#1 -122529094#10 -122529094#2 -122529094#3 -122529094#4 -122529094#5 -122529094#6 -122529094#7 -122529094#8 -122529094#9 -122529096#0 -122529096#1 -122529096#2 -122529096#3 -122529096#4 -122529096#5 -122529096#6 -122529096#7 -122529096#8 -122529098#0 -122529098#1 -122529099 -122529100 -122529101 -122529102#0 -122529102#1 -122529102#2 -122529102#3 -122529102#4 -122529103 -122529104#0 -122529104#1 -122529104#2 -122529104#3 -122529104#4 -122529105 -122529109 -122529110 -122529114#0 -122529114#1 -122529114#2 -122529115 -122529992 -122573577 -122590735#0 -122590736#0 -122590736#1 -122590745 -122590748 -122590749 -122590750 -122595210 -122702153 -122862075 -122869881 -122869889#0 -122869889#1 -122869890 -122880938#0 -122886921#1 -122949520#0 -122949520#1 -122949522 -122949524#0 -122963283#0 -122963283#2 -122978214 -122997935 -123034394 -123037083 -123082180 -123120902 -123341417 -123341422#0 -123411896#0 -123411903 -123411915#0 -123411915#1 -123412757#2 -123412757#3 -123476419 -123544948#0 -123552917#0 -123552917#2 -123552926 -123629297#0 -123629304#0 -123629304#1 -123633585 -123643907 -123654031 -123825331#0 -123825331#1 -123825335 -123825339#0 -123825339#1 -123984056#0 -123984056#1 -123984056#2 -123984057#0 -124002062 -124116436#0 -124116437#0 -124126960 -124419860 -124448648#1 -124536769 -124537759 -124537762 -124681350 -124693994 -124881325 -125067902 -125133725 -125133726 -125143960#0 -125143960#1 -125143963 -125143975 -125143981#0 -125143981#1 -125143983 -125143984 -125143985#0 -125143985#1 -125143985#2 -125143985#3 -125143986 -125143988#0 -125143988#1 -125238256 -125314348 -125351107 -125351109 -125351110 -125351113 -125351114 -125351117#0 -125351117#1 -125351126#0 -125351126#1 -125351131 -125351134#0 -125351134#1 -125351135 -125351138 -125351139#0 -125351139#1 -125351142#0 -125351142#1 -125351142#2 -125351142#3 -125351142#4 -125351142#6 -125351142#7 -125351146 -125351148 -125351150 -125351155 -125351156#0 -125351156#1 -125351161#0 -125351161#1 -125351162#0 -125351162#1 -125351165#0 -125351165#1 -125351167#0 -125351167#1 -125351169 -125351170#0 -125351170#1 -125351177#0 -125351177#1 -125351177#2 -125351188#0 -125351188#1 -125351191 -125351192#1 -125351192#2 -125351192#4 -125351192#5 -125351195 -125351198#1 -125351198#2 -125351199#0 -125351199#1 -125351199#2 -125351209#0 -125351209#1 -125371794#0 -125371794#1 -125371794#2 -125371794#3 -125402615 -125402647 -125417812 -125479149 -125482061 -125482364#0 -125482365 -125483771 -125589533 -125589545 -125602434 -125615620 -125663406 -125684096 -125689487#0 -125689487#1 -125689487#2 -125689487#3 -125689492 -125693711 -125693715 -126140573#3 -126196858 -126197813#0 -126197824 -126197829 -126197837 -126197885 -126250912 -126301857 -126301859 -126301860#0 -126301860#1 -126301861#0 -126301861#1 -126301863 -126344297#0 -126344297#1 -126344297#2 -126352226 -126357582 -126380664 -126382095 -126382099 -126389505 -126389506#0 -126389506#1 -126449197 -126449297#0 -126449297#1 -126488642 -126489999 -126499103#0 -126500800 -126501916 -126502543 -126502545 -126548897 -126613238 -126709272#0 -126709272#1 -126726349 -126726955 -126773139 -126773174 -126773175 -126773177 -126773180 -126852817 -126852896 -126852898 -126852899 -126852900 -126881419 -126881420 -126881424 -126894676#0 -126894678#0 -126894678#3 -126894682#0 -126894682#1 -126895740 -126897923#0 -126897923#1 -126904280 -126905628#0 -126905630 -126905635 -126905984 -126906449 -126990637 -127185272 -127185273#0 -127207622 -127328156 -127346479 -127346481#0 -127347909 -127496560 -127580616 -127581021 -127582123 -127604675#0 -127604675#1 -127604675#2 -127605220#0 -127605220#1 -127605221#0 -127605223 -127605225 -127605238 -127605823#0 -127605823#1 -127605823#2 -127605823#3 -127607363 -127607364 -127807457 -127809159#0 -127809159#1 -128050168 -128118881 -128118893 -128118925 -128139009 -128139013 -128139030 -128269425 -128274423 -128274424#0 -128274424#1 -128279965#0 -128279965#1 -128279966 -128357018#0 -128357018#2 -128357020 -128394601 -128489934 -128492841 -128496933 -128504972 -128672146 -129080090 -129300238 -129300241#0 -129300972 -129300980 -129463686#0 -129523045 -129552295 -129552306 -129552313 -129719717 -129719840 -129784454 -129784456#0 -129784634#0 -129784635 -129785059#0 -129785060 -129827593#0 -129827593#1 -129827611#0 -129827612#0 -129829169 -129840211 -129901059 -130111717 -130125425 -130193140 -130206504 -130212306 -130267473#0 -130686055 -130691509 -130691517#0 -130707385 -130707386 -130707391 -130708432 -130708439#0 -130708439#1 -130735705 -130997946 -131095245 -131095251 -131119719 -131119750 -131269634 -131269645 -131269880 -131270058 -131472582 -131541123 -131698811 -131698834 -131780623 -131780631#0 -132022884 -132047178 -132047180 -132193634 -132403035#2 -132638752#0 -132638752#1 -132638752#3 -132638752#4 -132638752#5 -132638752#6 -132855663#1 -132917017 -132917018 -132954726 -132957857 -133147666 -133850047 -134136587 -134136589 -134239748#0 -134239748#1 -134239748#2 -134239748#3 -134267784 -134468234#0 -134521111 -134521113 -134580835#1 -134682007 -134684069 -134684278 -134812737 -135085708 -135314685 -135314689 -135324331 -135337553 -135337558#0 -135337558#1 -135406802#0 -135406802#1 -135440679 -135654631 -135661489 -135661490 -135662167 -136019924#1 -136019925 -136019926 -136090911 -136091638#0 -136091638#1 -136091638#2 -136091638#3 -13615786 -136394101 -136698481 -136721664 -136721666 -136721667 -136721670#0 -136721671 -136721672 -136721675 -136721677#1 -136721679#0 -136721679#1 -136721681 -136721683 -136864084#0 -136864084#1 -136864084#2 -136864086 -136867909 -136871022 -136871025 -136989890 -136989893 -136989894#0 -136989894#1 -136989898 -136989899#0 -136989899#1 -136989900 -136989902 -136989903 -136989905#0 -136989905#1 -136989905#2 -136989905#3 -136989906 -136989908#1 -136989909 -136989911#0 -136989911#1 -136989911#2 -136989912 -136989913 -136989915 -136989918 -136989919#0 -136989919#1 -136989919#2 -137294392 -137294686 -137321724 -137353170 -137353407 -137353408 -137353410#0 -137353410#1 -137353411 -137353413#0 -137353413#1 -137353415 -137353416 -137353420#0 -137353420#1 -137353420#2 -137353424 -137353425#0 -137353425#1 -137353430#0 -137353430#1 -137353431 -137353432 -137353433#0 -137353433#1 -137353434#0 -137353434#1 -137353476 -137364905 -137388192#0 -137388192#1 -137388193 -137834041#0 -137834041#1 -137996243 -137996244#0 -137996244#2 -137996247 -137996252 -138037516 -138037519 -138037521 -138065837 -138065839 -138067566#0 -138067566#1 -138194573#0 -138262409 -138281209#1 -138281217 -138315445 -138350778#0 -138350780#0 -138350780#1 -138350780#2 -138368251 -138368252 -138517980 -138517983 -138605777 -138624755 -138624765 -138661334 -138666583 -138710484#0 -138710486 -138732131 -138732136 -138914235#0 -139079946#0 -139079948 -139081838 -139131949 -139188772 -139189569 -139189578#2 -139189889 -139217744 -139219223#0 -139225425 -139225428 -139225440 -139241837 -139499394 -139499399#2 -139505949#0 -139505949#1 -139506292#0 -139506292#1 -139506292#2 -139506292#3 -139507998 -139508000#0 -139508000#1 -139916980 -139916981 -139917030 -140362561#0 -140362561#1 -140362566#0 -140362566#1 -140370222 -140371592 -140371593#0 -140372708#0 -140372712 -140373543 -140374263#1 -140420313 -140493614 -140495437 -140497659#0 -140497659#1 -140499031#0 -140499031#1 -140499035 -140499036 -140499037 -140499038 -140499040 -140499063 -140536663 -140559212 -140559220 -140559224 -140697404#0 -140702357 -140722593#0 -140722593#1 -140734761#0 -140734761#1 -140738419 -140822427 -141058679 -141058995 -141059003#0 -141059003#1 -141103450 -141104289 -141104290#0 -141104290#1 -141104780#0 -141104780#1 -141104780#2 -141197337 -141199189 -141219551#0 -141219551#1 -141220321 -141228999 -141320983 -141754776 -141762449 -141965396 -142497100#0 -142985196#0 -142985196#2 -142985200#0 -142985204 -142986197 -142986201 -142986211 -142986220#0 -142986220#1 -142986220#2 -142986220#3 -142986220#4 -142986220#5 -142986220#6 -143057427 -14336002#0 -14336002#1 -144126633#0 -144140936 -144148125 -144266107#0 -144276888 -144276892#0 -144276892#1 -14433921#1 -14434303 -144374747#0 -144374747#1 -14448163#0 -14448163#1 -14453864 -145051252 -145226600 -145346701 -14571549 -14571550#0 -14571550#1 -14573382#0 -14573382#1 -14573382#2 -14573382#3 -145737637#0 -145737637#1 -145999374#0 -145999374#1 -14623465 -147133783#1 -147133993 -147136167 -147141239 -147321902 -147321906#0 -147321906#1 -147322293 -147434940 -147561108 -147628760 -147628763#0 -147628763#1 -147630426 -147633302#0 -147633302#1 -147633302#2 -148174325#0 -148174325#1 -148322681 -148575911 -148575914#0 -148578353 -148581295 -148585996 -148853468 -148875463 -148895753 -149036744#0 -149107332 -149118539 -149118540 -149119261 -149705098 -149705104 -149705105#0 -149705106 -14994763 -150311893#1 -150311913 -150311940 -150320256#0 -150453096#0 -15063586#1 -150645961 -150689958 -150748770 -150748771 -150748772 -150766939 -150770491#0 -150770491#1 -15091600#0 -15091600#1 -15091600#2 -15093418 -15101963 -151278520 -15239576 -15240373 -15242125 -15242126 -15242127#1 -15242128#0 -15242128#1 -15242129#0 -15242129#1 -15245638#0 -15245638#1 -15258510#0 -152625197 -152781972 -152781973 -152781976 -152782006 -152793520 -152817517 -153716505#0 -153716505#1 -154116494#0 -154116494#1 -154116496#0 -154116496#1 -154116497#0 -154116497#2 -154150880#0 -154524792 -15453861 -154659318#0 -154659318#1 -154659322#0 -155119404 -15600515 -156117444 -156117446#0 -156117446#1 -156117446#2 -156117456 -156117460 -156117462 -156117465 -156658121 -156920580 -156950267 -157059846 -15733983 -15734898 -15734901 -15734903#0 -15734903#1 -15735204 -15735539 -15735544 -15735989 -15735991#0 -15735992 -15735994 -15737125 -15737393 -15738406 -15738409 -15738411 -15741111 -157428786 -157428787 -158034028 -15806587#0 -15806587#2 -15806587#3 -15806770 -158530196 -158530197 -158541121 -15863750#0 -15863750#1 -15863755 -158756090#1 -158762142#0 -158762142#1 -158762152 -158762159#0 -158762159#1 -158762159#2 -158766038 -158766044 -158766045#0 -158766047 -158766052 -15877999#0 -15878005 -15878017 -15878025#0 -15881544#0 -15881544#1 -15881544#2 -158882484#0 -158882484#1 -158882484#2 -158882485#0 -158882485#1 -158882486 -158882487#0 -158882487#1 -158882487#2 -15889714 -159218253 -159761036#1 -160048498 -160203272 -160203275 -160204234 -160321184 -160321192 -160632153#0 -160632153#1 -160632153#2 -160643991 -160717773 -160717774 -160717776 -160717780 -160717785 -160718439 -160797737 -160807812 -160807826#0 -160807826#1 -160807838 -16086731 -161014718 -161014722 -161014731 -161027330 -16109715 -161176858 -161177384#0 -161177384#1 -161177384#2 -161177384#4 -161177384#6 -161196506 -161306645 -16156242 -16158460#1 -161639536 -161639538 -161639539 -161639540#0 -161643063 -161647409 -161651562 -161851305 -161963592 -161963594 -161963595 -162352616 -16277612#0 -16277928#2 -16345605#0 -16345605#1 -16345612#0 -163807659 -164380257 -164821618 -164921849 -165091307 -165660727 -165900133 -165900134#0 -165900136#0 -165900136#1 -165900136#2 -166077802#1 -166077804 -16625702 -16626712 -16627594 -166503442 -166519339 -166699662 -167581246 -167874674 -168199844 -168654309 -16868678#1 -16868678#2 -16875468 -168909680#0 -169309496#0 -169309496#1 -169310108#0 -169310108#2 -169310136#0 -169310136#1 -169313833#0 -169313833#1 -169313833#2 -169313833#3 -169380077#1 -169380109#0 -169380109#1 -169380109#2 -169380109#3 -169380109#4 -169380109#5 -169380109#7 -16941274 -16961858 -16961928 -169871323 -17002946 -17108741 -171541426 -171795534 -17248859 -17264716 -17265677 -173392709 -17420386 -17435047 -174729563 -17485111 -175155171 -175224076 -175292066 -176548652 -177110586 -177110615#0 -177110615#1 -177110615#2 -177110615#3 -177113706 -177144646 -177288620 -17736395 -177387877 -177401368#0 -177401368#1 -177401369 -177401370#0 -177401370#1 -177401371#0 -177401371#1 -177570323 -177918440 -178132932 -178138369#0 -178138369#1 -178138370#0 -178138370#1 -178138370#2 -178138371 -178179087 -178182584#0 -178182584#1 -178182584#2 -178182585#0 -178182585#1 -179047718 -179047719 -179752643 -180421875#0 -180589953 -180791373#0 -180791375#0 -180791375#1 -180803169#1 -180803173 -180803175#0 -180803182#0 -180803182#1 -180803198 -180812042#0 -180812042#1 -180812044 -180812046 -180835346 -180948644 -181724974 -181724976 -182191121#0 -182191121#1 -182191125 -182195768 -182195770#0 -182195771#0 -182195776 -182240411 -182886295 -182886418 -182886420 -182979004 -183035440#0 -183035440#1 -183035440#2 -183051700 -18312020 -183235703 -183247519#0 -183326651#0 -183347501 -183347503 -183347516#0 -183347516#1 -183347516#2 -183388564#0 -183388564#2 -183390263 -183394141 -183401315#0 -183401315#1 -183401315#2 -183401315#3 -183403745 -183474135#0 -183474135#1 -183474135#2 -183474135#3 -183500994 -183512801#0 -183512801#1 -183533895 -183639093#0 -183639093#1 -183639093#2 -183648793 -183666601#0 -183666601#1 -183753335 -18381450#2 -183828644 -18383726 -183841552 -183847149 -184015983 -184119491#0 -184154034 -184444094 -18467158 -185321716 -185321718 -185427811 -185429513 -185584599 -186155645#0 -186155645#1 -186258597 -186631612#0 -187371398 -187522004 -187522021#0 -187522050#0 -187522059#0 -187522059#1 -188200849 -188210289 -188280591 -188464644 -188653321 -188685953 -188685954#2 -188749067 -188749068 -188890214 -188997018 -189188899 -189445814 -189765351 -189797586 -189921951 -189921954 -189923268 -189923269#0 -190497695#3 -190639980 -190641169 -190716498 -190721698 -190721768#0 -191010675#0 -191197856 -191199323 -191201120 -191253807 -191270666 -191374712#0 -191374714#0 -191374715#0 -191374715#1 -191389777 -191542155 -191544570 -191545688 -191545882#0 -191545882#1 -191553095 -191703410 -191996212 -192049368 -192049369#0 -192050630 -192054804#0 -192056823 -192223720#0 -192596483 -192596506 -193107442 -193109913#0 -193114002 -193116151 -193224050 -193291560 -193296529#0 -193480087 -193601509 -193640980 -193644278#0 -193644278#1 -193671819 -193684941 -193684946#0 -193687709 -194345826 -194383769 -194383770#0 -194383770#1 -194445375 -195008346 -195033680 -195033681#0 -195534795 -195550961#0 -195551077 -195552018 -195552019#0 -195552020#0 -195552854 -195631359 -195631360 -195631370 -195720443 -195720445 -195866682 -195898177 -195978631 -196086581 -196096279#0 -196305577 -196305846 -196663482 -196886051#0 -196887726 -196972961 -197343042 -197874301 -197882547#1 -197882547#2 -19850958#0 -19854730 -19854731 -198568864 -198581250 -199191047 -199288293 -19975232 -199982712#0 -199982712#1 -200003836#0 -200003836#1 -200003836#2 -200077555#2 -200275930 -200276369 -20045694#0 -20045694#2 -20045844#0 -20045870 -20045935 -20046011#0 -20046066#0 -201786903 -201790242 -20179292#0 -20179292#1 -202624701 -202636122#0 -203300097 -203752765 -204247887 -204539337 -204924353#0 -205258663#0 -205258663#1 -205258664#0 -205258664#1 -205468106 -206350043 -206350048 -206350049 -206350050 -206522777 -206551701 -207112860#0 -207112860#1 -207112860#2 -207782053 -208026487#0 -208026487#1 -208428248#2 -208548182 -208548183 -208548184#0 -208548185 -208561690 -208585109#0 -208696272#1 -209080439 -209234443 -209234444 -209289065#0 -209289065#1 -209289066#0 -209289066#1 -209322455#0 -209322455#1 -209322456#0 -209322456#1 -209385911#0 -209385911#1 -209548600 -209552848 -209833313#0 -209833313#1 -209845131 -209860367#0 -209860367#1 -209860368#0 -209860368#1 -209861262 -210066052#0 -210066052#1 -210066052#2 -210066052#3 -210072048#0 -210072048#1 -210072048#2 -210072048#3 -210072050 -210073272 -210073276 -210282070 -210338807 -210338810 -210338811 -210338812 -210374678 -210376744 -210457775#0 -210457775#1 -21052315#0 -21081120#0 -210993752#0 -210993752#1 -210993752#2 -210994589 -210994591 -210994594#0 -210994594#1 -210994594#2 -210994594#3 -211040109#0 -211040109#1 -211040111#0 -211040112#0 -211040112#1 -211040112#2 -211041414 -211041517 -211042302#0 -211042303#0 -211042303#2 -211042371 -211043504 -211043505 -211043561 -211119157#0 -211119157#1 -211119798#0 -211119798#1 -211120148 -211120149 -211122001 -211129670#0 -211199290#0 -211199290#1 -211199292 -211199295 -211205575 -211206248 -211208696#0 -211208696#1 -211448169 -211448170 -211448172#0 -211448173#0 -211456308 -2116