<?xml version="1.0" encoding="UTF-8"?>

<!-- generated on 2022-10-25 11:35:46.532581 by edgesInDistricts.py UNKNOWN
  options: -n sumo_files/helmet_area.net.xml -t sumo_files/helmet_zones.poly.xml -o sumo_files/districts.taz.xml
-->

<tazs xmlns:xsi="http://www.w3.org/2001/XMLSchema-instance" xsi:noNamespaceSchemaLocation="http://sumo.dlr.de/xsd/taz_file.xsd">
    <taz id="po_10001" color="red" edges="-1077012888 -23009695#1 -23009714 -23009718 -23047643#0 -23047643#1 -23483694#0 -24531603#0 -24531603#2 -26745120 -26745216 -32229135 -38713506 -38713525 -48924615 -48924617 -66363934 -66363935 -685057767#0 -685057768 -969469463 1077012888 161622864 23009695#1 23009714 23009718 23047643#0 23047643#1 23047643#2 24531603#0 24531603#2 257476899 258618935 26745120 32229135 450247893#3 48924615 48924617 66363934 66363935 685057767#1 685057768 969469462 98614508"/>
    <taz id="po_10002" color="red" edges="-128492484 -128492486 -128492493 -128492510 -19818326#0 -19818326#1 -19818326#2 -19818369#0 -23047643#0 -23047643#1 -23047643#2 -23483694#0 -23483694#1 -23605504 -23773772#0 -32229135 -386680356 -483416822 -49145998#1 118487468 128492486 14962372 161622847#0 19818326#0 19818326#1 19818326#2 19818369#0 19818369#1 23047643#2 23047643#3 23483694#1 23605504 23773772#0 23773824#2 32229135 386680356 430079922 49145998#1 894144298#0"/>
    <taz id="po_10003" color="red" edges="-120807522#0 -120807522#1 -120807522#3 -128492488#0 -128492488#1 -128492488#3 -128492488#4 -128492492 -128492493 -157811093 -251671180#0 -25452875#0 -25452875#1 -38077558#0 -38077558#1 -38077558#2 -38077558#3 -38077558#4 -38077559 -38077560 -38077561 -43767472 -43767473 -48123987 120807522#0 120807522#1 120807522#3 128492488#1 128492488#3 14962372 157811093 157811099 161622856 25452875#0 25452875#1 38077558#0 38077558#1 38077558#2 38077558#3 38077558#4 38077559 38077560 38077561 43767472 43767473 48123987 48924625"/>
    <taz id="po_10004" color="red" edges="-120807519 -128492488#4 -24996006#0 -24996006#1 -24996393 -24996405 -25452901#0 -25452901#1 -25452901#2 -25452902 -450247893#1 -450247893#2 -98812892 120807519 128492488#3 128492488#4 24996006#0 24996006#1 24996393 24996405 25452901#0 25452901#1 25452901#2 25452902 257476899 258618935 450247893#1 450247893#2 98812892"/>
    <taz id="po_10005" color="red" edges="-118487468 -14826468 -26745216 -32229135 -38713525 -450247893#2 -681680988 -860412853 118487468 14826468 257476899 258618935 32229135 450247893#2 450247893#3 681680988 860412853 98614508"/>
    <taz id="po_10006" color="red" edges="-118487468 -128492492 -128492511 -24990154#0 -24990154#1 -681680988 118487468 128492511 14962372 24990154#0 24990154#1 681680988"/>
    <taz id="po_1001" color="red" edges="-21519792 -22945566 -23014654 -23089275#0 -23089275#1 -28655438#1 -29689104#0 -29990320 -30141011 -404328668#0 -404328668#1 -404328669 -418112245 -494775426 -5043417 -5043438 -51270245 -550660688 -772172188 -772172190 -8097218 -8097222 -8097229 -8097234 -83899313 -931083101 -931083147 21519800 22945566 23014654 23089275#0 23089275#1 28655438#1 29689104#0 29689105 29689106 29689107 30141011 334230532 404328668#0 404328668#1 404328669 418112245 494775425 5043417 5043438 550660688 8097218 8097222 8097229 8097234"/>
    <taz id="po_10011" color="red" edges="-14849320 -23009695#1 -23468936 -23483694#0 -23592399 -23592400#0 -23592400#1 -23592401#0 -23592401#1 -23592401#2 -23592426 -23592427 -23592429 -23592435 -23592474#0 -23592474#1 -23592474#2 -23592475#0 -23592475#1 -23606611#0 -23606611#1 -23606611#2 -23766898 -23766913#0 -23766913#1 -24531603#0 -24921700#0 -24921700#1 -24921700#2 -24921700#3 -386680357 -38713506 -66363934 14849320 161622860#0 161622860#1 161622864 19818428#0 19818428#1 23009695#1 23468936 23592399 23592400#0 23592400#1 23592401#0 23592401#1 23592401#2 23592426 23592427 23592429 23592435 23592474#0 23592474#1 23592474#2 23592475#0 23592475#1 23605505#1 23606611#0 23606611#1 23606611#2 23766898 23766913#0 23766913#1 24531603#0 24921700#0 24921700#1 24921700#2 24921700#3 386680357 386680358 66363934 894144290#0 894144297 894144298#0"/>
    <taz id="po_10012" color="red" edges="-23468545#3 -23468935#1 -23468935#2 -23468936 -23468939#0 -23468939#1 -23468941#0 -23468941#1 -23468945#0 -23468945#1 -23468946 -23484412#0 -23484412#1 -23484412#2 -23484412#3 -23484412#4 -23592384#0 -23592384#1 -23592385 -23592422 -23592423 -23592474#0 -23592474#1 -23592475#1 -23592475#2 -23598830 -23605504 -472582897 -49145998#1 -66363936 -66363937 161622847#0 161622847#1 161622847#2 23468545#3 23468935#1 23468935#2 23468939#0 23468939#1 23468941#0 23468941#1 23468945#0 23468945#1 23468946 23484412#0 23484412#1 23484412#2 23484412#3 23484412#4 23592384#0 23592384#1 23592385 23592423 23592474#0 23592474#1 23592475#1 23592475#2 23598830 23605504 23773824#0 23773824#1 23773824#2 472582897 49145998#1 66363936 66363937 969469467"/>
    <taz id="po_10013" color="red" edges="-128752610 -23468545#1 -23468545#3 -23468950#0 -23468950#1 -23468950#2 -23468950#3 -23468955 -23484243#0 -23484243#1 -23618710#0 -23773357#0 -23773357#1 -23773499 128752610 23468545#1 23468545#3 23468950#0 23468950#1 23468950#2 23468950#3 23468955 23484243#0 23484243#1 23773357#0 23773357#1 23773499 23799714"/>
    <taz id="po_1002" color="red" edges="-21519763 -29990320 -5043405 -5043447 -5043454 -550660688 -550660692 -815557326 -83899296 -83899308 -83899313 -83899318 -83899322 -83994235 -83994236 -931083101 -931083103 21519763 21519800 29689103 29990320 31002958 31002959 334230532 5043381 5043422 5043447 5043454 550660688 83899293 83899334 83899337 83994235 83994236 931083103 934288472"/>
    <taz id="po_10021" color="red" edges="-23468545#0 -23468545#1 -23468545#2 -23468545#3 -23483886 -23483925#0 -23483925#1 -23483925#2 -23483925#3 -23594034 -23594311 -23618710#1 -23767577 -865637528 23468545#0 23468545#1 23468545#2 23468545#3 23483886 23483925#0 23483925#1 23483925#2 23483925#3 23594034 23594311 23618710#1 23767577 23799714 894144296#1"/>
    <taz id="po_10022" color="red" edges="-22486457#1 -23468545#0 -23468545#1 -23483925#3 -23483925#4 -23483925#5 -23592477 -23598442 -80864823#0 22486457#1 23468545#1 23483925#3 23483925#4 23483925#5 23483925#6 23592477 23598442"/>
    <taz id="po_1003" color="red" edges="-116363379 -116363505 -177288620 -22981415 -29689104#0 -30531154 -404641522#0 -418112245 -45011173 -494775398 -494775420 -494775426 -5043216#0 -5043216#1 -772172190 -8097200 -8097202#0 -8097208 -815557326 -83899305#0 -83899328 -83904234#0 -83904234#1 177288620 22945579 22981415 29689104#0 29689106 30531146 30531154 31002959 404641522#1 418112245 45011173 494775425 5043216#0 5043216#1 5043294 5043381 550660681 550660682 550660683 550660686 550660687 550660694 8097200 8097202#0 8097202#1 8097208 8135744#3 8135744#4 83899305#1 83904233 83904234#1 934288466"/>
    <taz id="po_10030" color="red" edges="-26731327 -26926316#0 -55761373#0 -59469088#0 -59469088#1 -59469091 -881781134 -886575691#0 -894144292 257476899 258618935 26731327 26745217 26926316#1 55761373#1 59469088#0 59469088#1 59469091 894145354 982090155"/>
    <taz id="po_1004" color="red" edges="-180421875#0 -188464644 -190497695#3 -21519263 -21519274 -23016126#0 -23044186#0 -26923302 -27150218 -333893678 -35358170#0 -35358170#1 -403552282 -412420330 -4226246 -494775394 -494775395 -4960685 -5037055 -5043444 -5043837 -5043838 -556688625 -78492316#1 -79819558#0 -79819561#1 -79819565 -803387257 -81512750 -81512753#0 -81512756 -81512757#0 -83897892 -83897897 -83897900 -83900121 -83900123#0 -83900135 -83900355#1 -8591814 -931083113 -98157338 -98157350 180421875#0 180421875#1 188464644 190497689#0 190497695#0 190497696#0 190497697#0 190497699#0 190497700#0 190497701#0 21519274 21519291 22945579 22981402 23016122 23016126#0 23016126#1 23044186#0 23044186#1 26923267 26923302 26923310#0 26923310#1 30068578#0 30089928 30529676 30529681#0 30531148 30531152 31002958 333648700 333893678 333893679 35358170#1 403552282 412420330 4226245 4226246 4581554 4875458 494775395 4960685 5037034 5037055 5043444 5043837 5043838 550660681 55594725 55594727 78492316#0 79817967 79819558#1 79819561#2 803387257 8096899 8096918 8135744#0 8135744#1 8135744#2 81512758 83897893#1 83897900 83900118#0 83900123#1 83900131 8591814 934288476"/>
    <taz id="po_10040" color="red" edges="-22392726 -23468545#3 -23483925#3 -25452882 -26745216 -26926316#0 -38713506 -783719220#0 -783719221#0 -783719221#1 -783719221#2 -783719222 -783719223 -793297982 -799607309#0 -799607310 -799607311 -799607321#0 -799607321#1 -801283056 -865637528 -894144294 -894144295 -894144296#0 23468545#0 23468545#3 23483925#3 25452879 257476899 258618935 26745217 386680358 450247893#3 783719220#0 783719220#1 783719221#0 783719221#1 783719221#2 783719222 783719223 793297982 799607309#1 799607310 799607311 799607321#1 801283056 865637527 894144294 894144295 894144296#0 894144296#1"/>
    <taz id="po_1005" color="red" edges="-25807926 -27150218 -27264374#0 -30529679 -35358170#1 -404181398 -4226234 -4875455 -494775403 -5043845 -550660691 -55594722 -78491120 -78491136 -79817950 -79817955 -79820094 -79820099 -79820104 -79820799 -8135741 -81514471#2 -81514819 -81514852 -81515920 -83900355#1 -8591750#0 -8597357 -98157345#1 -98157350 132833645 132833646 132833646-AddedOffRampEdge 138570799 138605731 149705103 17482196 17482197 180755093#0 190497691#0 190497691#1 190497692#0 21519291 240269278 248372771 26950587 27264374#1 27264495 27462269 27945999 30013649#0 30529677 30529679 30531140 30531143#1 30531143#3 326767777 35358170#1 404178430 42138980#0 4226233 4226234 4226235 4226239 4226242 4226243 4875455 4875457#0 494775403 494775407 5043845 5043855 521013102 55594721 55594723 55594724 55594726 55594727 574788711 574788753#0 743336299 79817954 79817963 79817979 79820102 79820110 8135738 854168921 8591750#0 8591750#1 8597357 86957325 86957333 86957342#0 89647078 98157345#0"/>
    <taz id="po_10050" color="red" edges="-38713506 -850569431 -98614506#0 386680358 850569431 98614506#0"/>
    <taz id="po_10061" color="red" edges="-1030773737#0 -1030773738#0 -112673704#0 -13863003#0 -13863003#1 -17429369#1 -17429369#2 -17429369#3 -23484703 -23484725#1 -23484863 -24210916 -24210977 -24211046#0 -24211046#1 -303360476#0 -813646479 -821080231 -94281916#0 -94281916#1 -94281937 1030773737#0 1030773737#1 1030773738#0 1030773738#1 112673704#0 13863003#0 13863003#1 17429369#1 17429369#2 17429369#3 23484703 23484725#1 23484863 24210916 24210977 24211046#0 24211046#1 42345447 813646479 94281916#1 94281937"/>
    <taz id="po_10062" color="red" edges="-128842439 -23662118 -24286689#0 -24286689#1 -24286691 -41177577 -41524751 -767350243 23662118 23662127 24286689#0 24286689#1 24286691 41177577 767350243"/>
    <taz id="po_10063" color="red" edges="-167860338#0 -167862365 -23662118 -25452882 -38713506 -41177577 -45249185#0 -45249185#1 -45249185#2 167860338#0 167860338#1 23662118 25452879 386680358 41177577 45249185#0 45249185#1 45249185#2 850569431"/>
    <taz id="po_10071" color="red" edges="-119758014 -20281300#0 -20281300#1 -20281300#2 -20281872 -20281873 -20409754#0 -20409754#1 -20409754#10 -20409754#2 -20409754#3 -20409754#4 -20409754#5 -20409754#6 -20409754#7 -20409754#8 -20409754#9 -20409755 -20409757 -20409758 -20409760 -20409763 -20409766 -20409767 -20409769 -20410730 -20411338 -20411339 -23697910#0 -23697910#1 -23697910#3 -24614254 -24614255 -24614257 -24614274 -40680466 -423684110 -448070995 -45509702 -45509705 -45509706 -48095085 -597920227#0 -597920227#1 -597920228 -689463559 -796947958 -819817834 119758014 133507019 20281300#0 20281300#1 20281300#2 20281873 20409754#0 20409754#1 20409754#10 20409754#2 20409754#3 20409754#4 20409754#5 20409754#6 20409754#7 20409754#8 20409754#9 20409755 20409757 20409758 20409760 20409763 20409766 20409767 20409769 20410730 23697910#0 23697910#1 23697910#3 24614254 24614255 24614257 24614274 40680466 423684110 448070995 45509702 45509705 45509706 597920227#0 597920227#1 597920228 746016962 796947958 819817834 878716732"/>
    <taz id="po_10072" color="red" edges="-12807882#0 -12807882#1 -20411338 -20412279#0 -20412281 -20412283 -20412284 -20412286#0 -20412286#1 -20412286#2 -20412286#3 -281375908 -281375911#0 -281375911#1 -31763381 -443824388 -450126862#0 -450126862#1 -450126862#2 -450126862#3 -450126862#4 -450126862#5 -450126862#6 -450126862#7 -59469076 -680734145 -680734146#0 -680734146#1 -680734146#2 -680734147 -680734148 -680734150#0 -680734150#1 -742213174 -742213175 -742213180 -742213183 -742213184 -742213185 -742213186 -816491069 -881781134 -956393827 -956393828 -977824368 1050601311 12807882#0 12807882#1 20412279#0 20412279#1 20412280 20412281 20412283 20412284 20412286#1 20412286#2 20412286#3 20412286#4 255977361 258618935 281375908 281375911#0 281375911#1 443824388 450126862#0 450126862#1 450126862#2 450126862#3 450126862#4 450126862#5 450126862#6 450126862#7 48867367 59469076 59469079 680734145 680734146#0 680734146#1 680734146#2 680734146#3 680734147 680734148 680734150#0 680734150#1 742213174 742213175 742213180 742213184 742213185 742213186 982090155"/>
    <taz id="po_10073" color="red" edges="-128492732 -167862365 -20411338 -23662118 -41524751 -767350243 12807882#0 128492732 167860338#1 23662118 23662127 257476899 258618935 45789732 767350243 977824368 982090155"/>
    <taz id="po_10074" color="red" edges="-1030773737#0 -112673704#0 -112673704#1 -112673704#2 -112673704#3 -161622845#2 -17432274#0 -17432274#1 -17432274#2 -17432274#3 -17432274#5 -20411338 -20411339 -23253793 -23484888 -23484889#0 -23484889#1 -23697927 -23697950#0 -23697950#1 -23697951 -24210950 -24614211#0 -24614211#1 -24614214 -24614228 -24614236 -40680473 -43472006 -689463560#0 -75896951 -75896952#0 -75896952#1 -821080231 1030773737#0 112673704#0 112673704#1 112673704#2 112673704#3 161622845#2 17432274#0 17432274#1 17432274#2 17432274#3 17432274#5 23253793 23484888 23484889#0 23484889#1 23697927 23697950#0 23697950#1 23697951 24210950 24614211#0 24614211#1 24614214 24614228 24614236 40680473 42345447 43472006 45789732 689463560#0 689463560#1 75896951 75896952#0 75896952#1"/>
    <taz id="po_10081" color="red" edges="-20765557 -20765659#1 -24210656#0 -24210656#1 -24210656#2 -24210665 -24286530#0 -303361108#0 -303361108#1 -303361108#2 -45509684#0 -45509684#1 -45509700 -59622303 -985986366 20765557 20765659#1 20765659#2 24210656#0 24210656#1 24210656#2 24210665 24286530#0 303361108#0 303361108#1 303361108#2 45509684#0 45509684#1 45509700 59622303"/>
    <taz id="po_10082" color="red" edges="-1022789758 -161622845#1 -161622845#2 -19707572#0 -19707572#1 -19707572#2 -19707572#3 -20765659#0 -20765690#0 -20765690#1 -20765690#2 -20765690#3 -20765824#0 -20765824#1 -24286530#1 -24286568#0 -24286568#1 -24286568#2 -24286568#3 -24286568#4 -24286568#5 -24286594 -24286614 -303361107#1 -45509675 -45509686 -45509689 -45509690 -45509692 -45509697 -45509698 -73509796#0 -73509796#1 1022789758 19707572#0 19707572#1 19707572#2 19707572#3 20765659#0 20765690#0 20765690#1 20765690#2 20765690#3 20765824#0 20765824#1 24286530#1 24286568#0 24286568#1 24286568#2 24286568#3 24286568#4 24286568#5 24286594 24286614 303361107#0 45509675 45509686 45509689 45509690 45509692 45509697 45509698 73509796#0 73509796#1"/>
    <taz id="po_10083" color="red" edges="-1030760768 -161622845#0 -161622845#1 -161622845#2 -161622851#0 -161622851#1 -161622851#10 -161622851#11 -161622851#12 -161622851#13 -161622851#2 -161622851#4 -161622851#6 -161622851#7 -161622851#8 -161622851#9 -20764312#7 -23253813#0 -23253813#1 -23253813#2 -23253813#3 -23253813#4 -23253820 -23253821 -23253834 -23253836#0 -23253836#1 -23253836#2 -23253848 -23253856 -23253858#0 -23253858#1 -24162788#1 -24162916#0 -24162916#1 -24162916#2 -24162920 -24162932 -24210697 -24210737#0 -24210737#1 -24210737#2 -24210737#3 -24210763 -24210765 -24613972 -24614000#0 -24614000#1 -24614081 -24614087 -24614124 -24614132 -24614133 -303361107#1 -45509699 -48174439 -48174440 -51931213 -51931218 1030760768 12807365#0 161622845#0 161622845#1 161622845#2 161622851#0 161622851#1 161622851#10 161622851#11 161622851#12 161622851#2 161622851#4 161622851#6 161622851#7 161622851#8 161622851#9 20764312#7 23253813#0 23253813#1 23253813#2 23253813#3 23253813#4 23253820 23253821 23253834 23253836#0 23253836#1 23253836#2 23253848 23253856 23253858#0 23253858#1 24162788#1 24162916#0 24162916#1 24162916#2 24162920 24162932 24210697 24210737#0 24210737#1 24210737#2 24210737#3 24210763 24210765 24613972 24614000#0 24614000#1 24614081 24614087 24614124 24614132 24614133 303361107#0 45509699 48174439 48174440 51931213 51931218"/>
    <taz id="po_10084" color="red" edges="-12807365#2 -14962293 -14962360#3 -14962360#4 -14962360#5 -14962360#6 -14962360#7 -14962360#8 -20764181 -20764312#0 -20764312#1 -20764312#2 -20764312#3 -20764312#4 -20764312#5 -20764312#6 -20764680 -20764805 -20764876#0 -20764876#1 -20764930 -22529346 -23903068 -23903072 -23903120#1 -23903123 -23903174#0 -23903174#1 -23903190#0 -23903190#1 -23903190#2 -23903190#3 -23903199#0 -23903199#1 -24043181 -24043188 -24043192#0 -24043192#1 -24043192#2 -24162761#0 -24162761#1 -24162762 -24162767 -24162768 -24162788#0 -24162788#1 -24162793 -24162836 -243276471#0 -243276471#1 -24554795 -24554802 -38915082#0 -38915082#1 -38915082#3 -42213668 -45509656 -45509658 -45509659 -45509673 -640857815 -88488159 -94281691 -94281708 12807365#0 14962248 14962293 14962360#4 14962360#5 14962360#6 14962360#7 14962360#8 161622851#12 161622859#0 20764312#0 20764312#1 20764312#2 20764312#3 20764312#4 20764312#5 20764312#6 20764680 20764805 20764876#0 20764876#1 20764930 22529346 23903068 23903072 23903120#1 23903123 23903174#0 23903174#1 23903190#0 23903190#1 23903190#2 23903190#3 23903199#0 23903199#1 24043181 24043188 24043192#0 24043192#1 24043192#2 24162761#0 24162761#1 24162762 24162767 24162768 24162788#0 24162788#1 24162793 24162836 243276471#0 243276471#1 243276472 24530581#0 24554795 24554802 26319915#0 26319915#1 38915082#0 38915082#1 38915082#2 42213668 45509656 45509658 45509659 45509673 640857815 88488159 94281691 94281708"/>
    <taz id="po_10091" color="red" edges="-14962360#1 -14962360#2 -14962360#3 -161622851#13 -161622851#14 -19707684#0 -19707684#1 -19707684#2 -20764181 -21105890 -21105961 -23062503#1 -23295751 -24162685 -45654180 -773158175 -891302175 14962360#1 14962360#2 14962360#3 161622844#0 161622844#1 161622844#3 161622851#13 161622851#14 161622851#17 161622851#18 19707684#0 19707684#1 19707684#2 20764181 21105890 21105961 22392377 23062503#1 23295751 24162685 45654180 553058950 678712598#0 678712598#1 678712598#2 678712598#4 773158175"/>
    <taz id="po_10092" color="red" edges="-13863003#1 -13863003#2 -161622851#14 -161622851#17 -161622851#18 -161622851#19 -161622851#20 -161622851#21 -17429369#0 -17429369#1 -21105961 -22392425 -23418355#0 -23418355#1 -23484725#0 -23484725#1 -23484748#0 -23484748#1 -23484748#2 -23484761#0 -23484761#1 -23484790 -23484793#0 -23484793#1 -24286723#0 -24286723#1 -24286737 -24554640#0 -24554640#1 -24554640#2 -24554914 -24554945 -49146001 -64942513 -891302175 -94281946#0 -94281946#1 -94281957#0 -94281957#1 -94281957#2 13863003#0 13863003#1 13863003#2 161622851#14 161622851#17 161622851#18 161622851#19 161622851#20 161622851#21 17429369#0 17429369#1 21105961 22392377 22392425 23418355#1 23484725#0 23484725#1 23484748#0 23484748#1 23484748#2 23484761#0 23484761#1 23484790 23484793#0 23484793#1 24286723#0 24286723#1 24286737 24554640#1 24554640#2 24554914 24554945 49146001 64942513 891935703#1 891935704 94281946#0 94281946#1 94281957#0 94281957#1 94281957#2"/>
    <taz id="po_101" color="red" edges="-282019290 -36730363 17214423#0 217189185#0 217189186#0 22906936 25522290#0 27265277#0 28583925#0 28684237#0 28684238 28775417#0 28920789 30259739#0 30259803#0 30259987#0 30259989#0 30259990 30471500#0 30471501 30471502#0 30530172#0 30530173#0 369151175#0 37137191#0 38156742 38156743#0 45150439#0 51707741#0 53355663 8046423#0"/>
    <taz id="po_10101" color="red" edges="-19884092#0 -19884092#1 -19884092#2 -20284837#0 -20284837#1 -20284863#1 -20764011#0 -20764011#1 -20764022 -21373901 -21374493#0 -21374493#1 -22392442 -22392455 -24059262#0 -850048392 161622844#0 161622844#1 161622859#0 20284837#0 20284837#1 20284863#1 20764011#0 20764011#1 20764022 21373901 22392442 22392455 24059262#0 24530581#0 678712598#4 850048392"/>
    <taz id="po_10102" color="red" edges="-1076936248 -20284863#0 -21374493#1 -23047201#0 -24059262#1 -45840164#0 -45840164#1 1076934476 161622844#3 161622844#4 161622844#5 20284837#0 20284863#0 21374493#0 21374493#1 23047201#0 24059262#1 39486873 678712579"/>
    <taz id="po_1011" color="red" edges="-108200235 -23079506 -24495605 -30815693#0 -30815693#1 -30815693#2 -344154607 -344568239 -411379796 -411777885 -411777888 -475430744 -5043472#0 -5043472#1 -5043472#2 -5043474#0 -5043474#1 -5043474#2 -5043475 -78391773 -78404518 -78404520#0 -78404521 -78404525 -78494999#0 -78495000 -8598221 -8598232#0 -8598232#1 -8598241 -8598280 -8598281 -8598282 -8598296 108200235 23079506 30815693#0 30815693#1 30815693#2 344154607 411777888 4226219 5043472#1 5043472#2 5043474#0 5043474#1 5043474#2 5043475 5046568 78404519 78404520#0 78404520#1 78404521 78404523 78404525 78406485 78494999#1 78495001 8598221 8598232#0 8598232#1 8598241 8598247 8598280 8598282 8598286"/>
    <taz id="po_10111" color="red" edges="-1030760770 -185630590 -19783367#1 -19783367#2 -19783367#3 -19783367#4 -19802154#0 -19802154#1 -19802154#2 -19802154#3 -19802164 -19883859#0 -19883859#1 -19883859#2 -19883906#0 -19883906#1 -19883976#0 -19883976#1 -19883976#2 -19883976#3 -19884010#0 -19884010#1 -19884092#2 -20284800#0 -20284800#1 -20284800#2 -20284800#3 -20284800#5 -20284800#6 -20763076#0 -20763076#1 -20763698#3 -22990380 -23066160#0 -23066160#1 -23959723#2 -23977641 -23977659#0 -23977659#1 -23977680 -33951103 -5119475 -54848697 -54848699#1 -80870292#0 -80870292#1 -80870296#0 -84486025 -969469494#0 -969469500#0 -969469500#1 19783367#1 19783367#2 19783367#3 19783367#4 19783367#5 19802154#0 19802154#1 19802154#2 19802154#3 19802154#4 19802164 19883859#0 19883859#1 19883859#2 19883906#0 19883906#1 19883976#0 19883976#1 19883976#2 19883976#3 19884010#0 19884010#1 19884092#0 19884092#1 19884092#2 20284800#6 20763698#3 22990380 23066160#0 23066160#1 23959723#2 23977641 23977659#0 23977659#1 23977680 5119475 51931238 51931328#2 54848697 54848699#1 80870292#0 80870292#1 84486023#4 84486024#3 969469498 969469500#1"/>
    <taz id="po_10112" color="red" edges="-1076912576 -185630612 -19883525#0 -19883525#1 -19884110#0 -19884110#1 -19884110#2 -19884110#3 -19884110#4 -20284800#3 -20284800#4 -20284800#5 -20763698#0 -20763698#1 -20763698#2 -23959723#0 -23959723#1 -24438649#0 -24438649#1 -24438649#2 -24613732 -303514695#0 -40745955 -45840164#1 -53206793 -54848699#0 -58518787 -58518788 -74007138 -80870296#1 -80870296#2 -84486023#0 -84486023#1 -84486023#2 -84486023#3 -969469495 185630612 19883525#0 19883525#1 19884110#0 19884110#1 19884110#2 19884110#3 19884110#4 20284725 20284800#0 20284800#1 20284800#2 20284800#3 20284800#4 20284800#5 20284800#6 20763698#0 20763698#1 20763698#2 23959723#0 23959723#1 24438649#0 24438649#1 24438649#2 24613732 303514695#0 331870019#1 39486873 40745955 45840164#0 45840164#1 53206793 54848699#0 55337740 58518787 74007138 80870296#1 80870296#2 84486023#0 84486023#1 84486023#2 84486023#3 969469494#1 969469495 969469498"/>
    <taz id="po_10113" color="red" edges="-17432739 -20284694#0 -20284694#3 -38117398 -39485476#0 -39492172 -44130827 -5119475 -54848697 -893734414#0 127184904 127184905#0 127184905#1 127184908 127184915 127184918 127184922 17432739 20284694#0 20284694#3 20763655#1 222004944#0 222004948 222004949 303514691 303514692#0 303514693 303514694#0 353220339 356806455#0 356806455#1 356806458 356806460 356806462#0 356806464#0 356806466#0 356806466#1 356806467#0 356806468#0 356806468#1 356806490 360680505 360680528 38117398 386357148#0 386671874 39485476#0 39485479 39491396 39493334 39493392#1 39493510#0 39596120#0 44130827 44158211 448046867 448048701 448048702 5119475 55251956#0 55255065#1 55255065#2 55255066#0 581234356 581234362 581234381 581234388 74007145#0 74007145#3 74007145#5 893734413 893734414#0 893734414#1 894385159 894385160"/>
    <taz id="po_1012" color="red" edges="-24495605 -263226552 -8598296 132832283 17485128 27150452 29752748 29753283 29753283-AddedOffRampEdge 7525777 98102535"/>
    <taz id="po_10121" color="red" edges="-19707328#1 -21618164 -23624333 -23624334 -23624418#0 -23624418#1 -23735576#0 -23735576#1 -23735642#0 -23735642#1 -23735642#2 -23983002#0 -23983002#1 -303654774#0 -303654774#1 -303654774#2 -303654774#3 -303999775#1 -303999775#2 -38078513 -38766499 -44848851#0 -44848851#1 -44848851#2 -46954820 -674256788 -674256790 -881672469#0 -881672469#1 -881672469#2 -969469457#0 21618164 23624333 23624334 23624418#0 23624418#1 23735576#0 23735576#1 23735642#0 23735642#1 23735642#2 23983001 23983002#1 303654774#0 303654774#1 303654774#2 303654774#3 303999775#1 303999775#2 38078513 38766499 44848851#0 44848851#1 44848851#2 46954820 516357471#1 51931328#2 674256788 674256790 881672469#1 881672469#2 969469457#1"/>
    <taz id="po_10122" color="red" edges="-127187922 -19707328#0 -19707328#1 -19893639 -19893733#0 -19893733#1 -19893733#2 -19893733#4 -19893750#0 -19893750#2 -19893750#3 -19893750#4 -19893820#0 -19893820#1 -23125528 -23125532 -24000363 -24310398 -24310399 -24314238 -24314332 -24613795#0 -24613795#1 -303999777#0 -303999777#1 -303999777#2 -74007131 -782624691 -858143443#0 -972753063#0 -972753063#1 19707328#0 19707328#1 19893639 19893733#0 19893733#1 19893733#2 19893733#4 19893750#0 19893750#2 19893750#3 19893750#4 19893752 19893820#0 19893820#1 22392483 23125528 23125532 24000363 24310398 24310399 24314238 24314332 24613795#0 24613795#1 303999777#0 303999777#1 303999777#2 74007131 858143443#0 890183558#2 890183558#3 890183558#4 890183561 890183562 972753063#0 972753063#1"/>
    <taz id="po_10123" color="red" edges="-109429027 -127182623#0 -127182623#1 -127182623#2 -127182623#3 -127182623#4 -20094945#0 -20094945#1 -20481779 -22700686 -22700698 -23533014 -23749838#0 -23749838#1 -23749839 -23749846 -23749847 -24699483 -24699493 -303654775 -303999775#0 -303999775#1 -303999775#2 -303999779 -377181492 -487917706 -487917707#0 -487917708#0 -487917708#2 -516357471#0 -782624692 -817892073 -82172124#0 -847712672#0 -858143442 -886031933 -972753063#0 109429027 127182623#0 127182623#1 127182623#2 127182623#3 127182623#4 20094945#0 20094945#1 20094945#2 20481779 22700677 22700698 23047146#3 23533014 23749838#1 23749839 23749846 23749847 24699483 24699493 303654775 303999775#0 303999775#1 303999775#2 303999779 377181492 487917707#1 487917708#2 817892073 82172124#0 82172124#1 847712672#1 858143442 886031933 890183558#1 890183558#2 890183558#5 890183559 890183560 890993373 972753063#0 972753063#1"/>
    <taz id="po_1013" color="red" edges="-149705098 -171795534 -17485111 -179047718 -179047719 -32511102#0 -32511102#1 -404703011 -404703042 -4226223 -475430739 -475430741 -475430744 -48297074 -494775415 -494775416 -78407447 -8135731 -931456978 -98286741 -98286743#0 -98286743#1 108200237 132833644 132852453 132852454 132852457 132852458 132852459 171795534 179047719 22605715 26950587 27462277#4 27945999 27946000 30529806 30529807 32511102#0 32511102#1 32511103 331090750 34359762 34359762-AddedOffRampEdge 34359763 35357596 35357598#1 4226219 4226220 4226223 4226227 4227165 4227166 494775419 5236048 8135731 8135740 854168921 98102535 98286743#1"/>
    <taz id="po_10131" color="red" edges="-109429032#5 -109429032#6 -17433254 -22754374#0 -22754374#1 -22754374#2 -22754410#0 -22754410#1 -22754415#0 -22754415#1 -23861996 -23861998 -23983003 -24748767 -303654776 -303999854 -303999855#0 -303999855#1 -41239216#0 -59620891 -963920565 1062367135 109429032#5 109429032#6 17433254 22754374#0 22754374#1 22754374#2 22754410#0 22754410#1 22754415#0 22754415#1 23861996 23861998 23983003 24748767 303999854 303999855#0 303999855#1 59620891 963920565"/>
    <taz id="po_10132" color="red" edges="-109429027 -109429028#0 -109429028#1 -109429031#0 -109429031#1 -109429032#10 -109562272 -127182624 -19707228 -19707300#0 -211948649 -22700686 -23047111 -23047119 -23047142 -23047146#0 -23047146#1 -23047146#2 -23047147 -23515120 -23624220 -23735571#0 -23735571#1 -23735645 -23749833 -23749835#0 -23749835#1 -23981555 -24000085#0 -303654776 -303654777 -303999776#0 -303999776#1 -303999778 -303999780 -46954779#0 -46954779#1 -46954780 -46954781 -501127476 -74007151 -782624692 -817892074 -817892075 -881842395 -973255423 107886978 107886979 109429027 109429028#1 109429030 109429031#0 109429031#1 109562272 19707228 19707300#0 19707300#1 22700686 23047111 23047119 23047142 23047146#0 23047146#1 23047146#2 23047146#3 23047147 23515120 23624220 23624417 23735571#0 23735571#1 23735645 23749833 23749834 23749835#0 23749835#1 23981555 24000085#0 24000085#1 303654776 303654777 303999776#0 303999776#1 303999778 303999779 303999780 377183152 38111685 46954779#0 46954779#1 46954780 46954781 501127476 689468506 689468507 74007151 755901276 755901277#0 755901277#1 755901277#2 755901278 755901279 755901280 755901281 817892074 817892075 973255423"/>