<?xml version="1.0" encoding="utf-8"?>
<routes>
 <vType color="green" id="taxi" personCapacity="2" vClass="taxi">
  <param key="has.taxi.device" value="true"/>
  <param key="device.taxi.pickUpDuration" value="0"/>
  <param key="device.taxi.dropOffDuration" value="10"/>
  <param key="device.taxi.parking" value="true"/>
 </vType>
 <trip depart="0" from="-79850595" id="t774" to="-117351451" type="taxi"/>
 <trip depart="0" from="26348751#0" id="t773" to="-5047285" type="taxi"/>
 <trip depart="0" from="117626824" id="t772" to="-5235974#1" type="taxi"/>
 <trip depart="0" from="295993399" id="t771" to="126382097" type="taxi"/>
 <trip depart="0" from="39162601" id="t770" to="104374237" type="taxi"/>
 <trip depart="0" from="-108077284" id="t769" to="-32969734" type="taxi"/>
 <trip depart="0" from="221127085" id="t768" to="-359509036" type="taxi"/>
 <trip depart="0" from="-4261825" id="t767" to="32016029#5" type="taxi"/>
 <trip depart="0" from="-28631236#1" id="t766" to="-126344297#2" type="taxi"/>
 <trip depart="0" from="138630788" id="t765" to="223401058#0" type="taxi"/>
 <trip depart="0" from="5235974#1" id="t764" to="-40109005#1" type="taxi"/>
 <trip depart="0" from="27092919" id="t763" to="-241239877#0" type="taxi"/>
 <trip depart="0" from="-38957693" id="t762" to="-12377757#1" type="taxi"/>
 <trip depart="0" from="-23197960" id="t761" to="60771161" type="taxi"/>
 <trip depart="0" from="-329836527" id="t760" to="132855675" type="taxi"/>
 <trip depart="0" from="-83826871#0" id="t759" to="-359509035" type="taxi"/>
 <trip depart="0" from="38455341#0" id="t758" to="61891159#0" type="taxi"/>
 <trip depart="0" from="-28918381#0" id="t757" to="57722544" type="taxi"/>
 <trip depart="0" from="8135855" id="t756" to="39979149" type="taxi"/>
 <trip depart="0" from="-5234573#0" id="t755" to="108501685#1" type="taxi"/>
 <trip depart="0" from="-404119038" id="t754" to="-85553506" type="taxi"/>
 <trip depart="0" from="-53682411#1" id="t753" to="309474376" type="taxi"/>
 <trip depart="0" from="116400272" id="t752" to="30257059#1" type="taxi"/>
 <trip depart="0" from="-26244626#0" id="t751" to="428110352#0" type="taxi"/>
 <trip depart="0" from="148251974" id="t750" to="734607012" type="taxi"/>
 <trip depart="0" from="131780631#1" id="t749" to="-9702971#0" type="taxi"/>
 <trip depart="0" from="-38281520#1" id="t748" to="10425893#4" type="taxi"/>
 <trip depart="0" from="261374489#0" id="t747" to="118155456#0" type="taxi"/>
 <trip depart="0" from="-117355642" id="t746" to="-4444379#1" type="taxi"/>
 <trip depart="0" from="4220238" id="t745" to="4238093#0" type="taxi"/>
 <trip depart="0" from="-135662167" id="t744" to="18381883#1" type="taxi"/>
 <trip depart="0" from="-260898352" id="t743" to="537512278#0" type="taxi"/>
 <trip depart="0" from="-797819200" id="t742" to="-4682949#3" type="taxi"/>
 <trip depart="0" from="27520439" id="t741" to="32461045#0" type="taxi"/>
 <trip depart="0" from="-63107848#0" id="t740" to="10425893#4" type="taxi"/>
 <trip depart="0" from="-27093115" id="t739" to="582264121" type="taxi"/>
 <trip depart="0" from="1080298604" id="t738" to="82284049" type="taxi"/>
 <trip depart="0" from="4644941#0" id="t737" to="-4252930#2" type="taxi"/>
 <trip depart="0" from="138670798" id="t736" to="24977184" type="taxi"/>
 <trip depart="0" from="139430283" id="t735" to="223401058#0" type="taxi"/>
 <trip depart="0" from="-256565269#0" id="t734" to="374118561" type="taxi"/>
 <trip depart="0" from="25894166#2" id="t733" to="102282710" type="taxi"/>
 <trip depart="0" from="-78393339" id="t732" to="-5047242#2" type="taxi"/>
 <trip depart="0" from="61412727" id="t731" to="141972842#1" type="taxi"/>
 <trip depart="0" from="83488859" id="t730" to="-352690643" type="taxi"/>
 <trip depart="0" from="-37102263" id="t729" to="-62064083" type="taxi"/>
 <trip depart="0" from="125591002" id="t728" to="-32619220#1" type="taxi"/>
 <trip depart="0" from="30529010#1" id="t727" to="39267985" type="taxi"/>
 <trip depart="0" from="24552630#0" id="t726" to="-61367459" type="taxi"/>
 <trip depart="0" from="81759225#1" id="t725" to="249399723" type="taxi"/>
 <trip depart="0" from="26012815#0" id="t724" to="-125693715" type="taxi"/>
 <trip depart="0" from="137353434#0" id="t723" to="308586584#0" type="taxi"/>
 <trip depart="0" from="121411749#0" id="t722" to="-195550961#0" type="taxi"/>
 <trip depart="0" from="62106241" id="t721" to="87397777" type="taxi"/>
 <trip depart="0" from="10561967#1" id="t720" to="82515683#2" type="taxi"/>
 <trip depart="0" from="10363301" id="t719" to="-331546056#1" type="taxi"/>
 <trip depart="0" from="38026875#2" id="t718" to="106089939#1" type="taxi"/>
 <trip depart="0" from="-304428443" id="t717" to="441119081#1" type="taxi"/>
 <trip depart="0" from="210282070" id="t716" to="5042322" type="taxi"/>
 <trip depart="0" from="-34149613" id="t715" to="301503168#1" type="taxi"/>
 <trip depart="0" from="15243164" id="t714" to="4233513" type="taxi"/>
 <trip depart="0" from="697751861" id="t713" to="138669849#0" type="taxi"/>
 <trip depart="0" from="-139917030" id="t712" to="-108154330#0" type="taxi"/>
 <trip depart="0" from="46606595" id="t711" to="-78393511#2" type="taxi"/>
 <trip depart="0" from="7918124#1" id="t710" to="75912775" type="taxi"/>
 <trip depart="0" from="4262091" id="t709" to="-304920093#0" type="taxi"/>
 <trip depart="0" from="-117643616" id="t708" to="-237837493#0" type="taxi"/>
 <trip depart="0" from="127605823#0" id="t707" to="-61453575" type="taxi"/>
 <trip depart="0" from="-80505819" id="t706" to="30529010#1" type="taxi"/>
 <trip depart="0" from="-83813136#0" id="t705" to="388757908" type="taxi"/>
 <trip depart="0" from="-644345097" id="t704" to="178179087" type="taxi"/>
 <trip depart="0" from="266160353" id="t703" to="-5094345#0" type="taxi"/>
 <trip depart="0" from="5042168#1" id="t702" to="266161715#3" type="taxi"/>
 <trip depart="0" from="30618813" id="t701" to="-8158164" type="taxi"/>
 <trip depart="0" from="-116049442" id="t700" to="-341640907" type="taxi"/>
 <trip depart="0" from="-62160923" id="t699" to="204323593" type="taxi"/>
 <trip depart="0" from="5094253" id="t698" to="137012062#1" type="taxi"/>
 <trip depart="0" from="140559212" id="t697" to="5067786#0" type="taxi"/>
 <trip depart="0" from="746195449" id="t696" to="28903697#0" type="taxi"/>
 <trip depart="0" from="32461045#4" id="t695" to="242044531" type="taxi"/>
 <trip depart="0" from="-61367419#0" id="t694" to="-16627594" type="taxi"/>
 <trip depart="0" from="142497095" id="t693" to="139217744" type="taxi"/>
 <trip depart="0" from="5038102" id="t692" to="-44038367#1" type="taxi"/>
 <trip depart="0" from="-117643616" id="t691" to="35604664" type="taxi"/>
 <trip depart="0" from="188956290" id="t690" to="44149187" type="taxi"/>
 <trip depart="0" from="140536663" id="t689" to="45777063" type="taxi"/>
 <trip depart="0" from="138669847" id="t688" to="-30001656" type="taxi"/>
 <trip depart="0" from="192223720#1" id="t687" to="-26165754#1" type="taxi"/>
 <trip depart="0" from="-4341507#0" id="t686" to="-151874349#0" type="taxi"/>
 <trip depart="0" from="125351188#0" id="t685" to="140374947" type="taxi"/>
 <trip depart="0" from="-26040356#1" id="t684" to="138065837" type="taxi"/>
 <trip depart="0" from="313656936" id="t683" to="-72728805" type="taxi"/>
 <trip depart="0" from="-61491729" id="t682" to="35772871" type="taxi"/>
 <trip depart="0" from="-327763010" id="t681" to="-116645516" type="taxi"/>
 <trip depart="0" from="-25361892#3" id="t680" to="26698153" type="taxi"/>
 <trip depart="0" from="61367419#3" id="t679" to="26349565#0" type="taxi"/>
 <trip depart="0" from="4872915#0" id="t678" to="-10560697#1" type="taxi"/>
 <trip depart="0" from="24304061" id="t677" to="-169310108#2" type="taxi"/>
 <trip depart="0" from="-211042371" id="t676" to="-310380982" type="taxi"/>
 <trip depart="0" from="95937943#2" id="t675" to="-102278339" type="taxi"/>
 <trip depart="0" from="-139189578#2" id="t674" to="-358697049#0" type="taxi"/>
 <trip depart="0" from="48719672" id="t673" to="26378769" type="taxi"/>
 <trip depart="0" from="-26469198" id="t672" to="-256567377" type="taxi"/>
 <trip depart="0" from="129784456#1" id="t671" to="-96945485" type="taxi"/>
 <trip depart="0" from="846117750" id="t670" to="117624637#1" type="taxi"/>
 <trip depart="0" from="116049442" id="t669" to="6171105#0" type="taxi"/>
 <trip depart="0" from="20359648#6" id="t668" to="-980528933#0" type="taxi"/>
 <trip depart="0" from="35607776" id="t667" to="4220453" type="taxi"/>
 <trip depart="0" from="-5208458" id="t666" to="125351134#0" type="taxi"/>
 <trip depart="0" from="-138281209#1" id="t665" to="138988238" type="taxi"/>
 <trip depart="0" from="46847992" id="t664" to="4343671#0" type="taxi"/>
 <trip depart="0" from="4685772#1" id="t663" to="46596597#2" type="taxi"/>
 <trip depart="0" from="-770900877" id="t662" to="48719672" type="taxi"/>
 <trip depart="0" from="-96824215" id="t661" to="5094268#0" type="taxi"/>
 <trip depart="0" from="-25587247" id="t660" to="24404915" type="taxi"/>
 <trip depart="0" from="79642850#0" id="t659" to="-37972272" type="taxi"/>
 <trip depart="0" from="-142035169#0" id="t658" to="5042037" type="taxi"/>
 <trip depart="0" from="-119051524" id="t657" to="-4952724" type="taxi"/>
 <trip depart="0" from="4233644#1" id="t656" to="-73848387" type="taxi"/>
 <trip depart="0" from="-4242689#2" id="t655" to="-290255301" type="taxi"/>
 <trip depart="0" from="-113586418" id="t654" to="145999374#0" type="taxi"/>
 <trip depart="0" from="355237242#0" id="t653" to="39139990#0" type="taxi"/>
 <trip depart="0" from="78320259" id="t652" to="-95195865#4" type="taxi"/>
 <trip depart="0" from="74310198" id="t651" to="83163132" type="taxi"/>
 <trip depart="0" from="131698849" id="t650" to="-62060308" type="taxi"/>
 <trip depart="0" from="204924353#1" id="t649" to="-76033106" type="taxi"/>
 <trip depart="0" from="-137353411" id="t648" to="-330910121" type="taxi"/>
 <trip depart="0" from="-137353425#1" id="t647" to="4261967#0" type="taxi"/>
 <trip depart="0" from="-89700113" id="t646" to="-24405231#1" type="taxi"/>
 <trip depart="0" from="-222307221#1" id="t645" to="4468810" type="taxi"/>
 <trip depart="0" from="-345972758#0" id="t644" to="35361304#2" type="taxi"/>
 <trip depart="0" from="164439014" id="t643" to="5067354#1" type="taxi"/>
 <trip depart="0" from="211199291" id="t642" to="22958409" type="taxi"/>
 <trip depart="0" from="24398203#1" id="t641" to="-95384658" type="taxi"/>
 <trip depart="0" from="297640897" id="t640" to="222885381" type="taxi"/>
 <trip depart="0" from="12377757#1" id="t639" to="119051530" type="taxi"/>
 <trip depart="0" from="-44905059" id="t638" to="-299232021" type="taxi"/>
 <trip depart="0" from="10559201" id="t637" to="-100073149" type="taxi"/>
 <trip depart="0" from="-18312020" id="t636" to="-18312020" type="taxi"/>
 <trip depart="0" from="-4872847" id="t635" to="-301503168#0" type="taxi"/>
 <trip depart="0" from="-126301861#0" id="t634" to="-24423625#2" type="taxi"/>
 <trip depart="0" from="117625588" id="t633" to="-46596678" type="taxi"/>
 <trip depart="0" from="968883803" id="t632" to="175129268" type="taxi"/>
 <trip depart="0" from="-61495637" id="t631" to="32496131" type="taxi"/>
 <trip depart="0" from="129249170#0" id="t630" to="-61270751" type="taxi"/>
 <trip depart="0" from="-74317523#0" id="t629" to="155832398#2" type="taxi"/>
 <trip depart="0" from="-139506292#2" id="t628" to="-84016136" type="taxi"/>
 <trip depart="0" from="192589803" id="t627" to="-4229445" type="taxi"/>
 <trip depart="0" from="27246119" id="t626" to="-71315890" type="taxi"/>
 <trip depart="0" from="-122529105" id="t625" to="-61270707" type="taxi"/>
 <trip depart="0" from="-57718371" id="t624" to="-367319945#1" type="taxi"/>
 <trip depart="0" from="107356074" id="t623" to="-87397768" type="taxi"/>
 <trip depart="0" from="4254366" id="t622" to="193671819" type="taxi"/>
 <trip depart="0" from="-332166064#0" id="t621" to="-4689427#1" type="taxi"/>
 <trip depart="0" from="-47518157#1" id="t620" to="-4238093#0" type="taxi"/>
 <trip depart="0" from="5041987#1" id="t619" to="-61371685#0" type="taxi"/>
 <trip depart="0" from="-34030478" id="t618" to="35354597#1" type="taxi"/>
 <trip depart="0" from="-74048891" id="t617" to="-6935285#0" type="taxi"/>
 <trip depart="0" from="5051707" id="t616" to="266160353" type="taxi"/>
 <trip depart="0" from="-125351199#1" id="t615" to="-328813517" type="taxi"/>
 <trip depart="0" from="-126301859" id="t614" to="9702971#1" type="taxi"/>
 <trip depart="0" from="-151874349#0" id="t613" to="557399294" type="taxi"/>
 <trip depart="0" from="40347661#2" id="t612" to="191374712#1" type="taxi"/>
 <trip depart="0" from="-1069054067" id="t611" to="-117541447" type="taxi"/>
 <trip depart="0" from="30261166#0" id="t610" to="-358697049#1" type="taxi"/>
 <trip depart="0" from="-63116648#0" id="t609" to="10426113#0" type="taxi"/>
 <trip depart="0" from="-201790242" id="t608" to="-191542155" type="taxi"/>
 <trip depart="0" from="-96202732" id="t607" to="1054290416" type="taxi"/>
 <trip depart="0" from="-128489934" id="t606" to="140697404#0" type="taxi"/>
 <trip depart="0" from="26369517" id="t605" to="38325502#1" type="taxi"/>
 <trip depart="0" from="82198462" id="t604" to="-212687238" type="taxi"/>
 <trip depart="0" from="22918188#2" id="t603" to="-235013693#1" type="taxi"/>
 <trip depart="0" from="-4343683#1" id="t602" to="340206713#0" type="taxi"/>
 <trip depart="0" from="138350778#1" id="t601" to="25920214#1" type="taxi"/>
 <trip depart="0" from="83916226#0" id="t600" to="-136721666" type="taxi"/>
 <trip depart="0" from="15242129#1" id="t599" to="353000468#5" type="taxi"/>
 <trip depart="0" from="5761267#6" id="t598" to="-46606162" type="taxi"/>
 <trip depart="0" from="-5235974#0" id="t597" to="39019694" type="taxi"/>
 <trip depart="0" from="26427985" id="t596" to="-5051707" type="taxi"/>
 <trip depart="0" from="-329359058" id="t595" to="-46596597#0" type="taxi"/>
 <trip depart="0" from="368900600#2" id="t594" to="-27369385" type="taxi"/>
 <trip depart="0" from="10426000" id="t593" to="233171094#1" type="taxi"/>
 <trip depart="0" from="-5012147" id="t592" to="-230786460" type="taxi"/>
 <trip depart="0" from="-158766052" id="t591" to="4688237" type="taxi"/>
 <trip depart="0" from="115798784#1" id="t590" to="9702971#1" type="taxi"/>
 <trip depart="0" from="-62116257" id="t589" to="-461905015" type="taxi"/>
 <trip depart="0" from="35605874#3" id="t588" to="22980736" type="taxi"/>
 <trip depart="0" from="5137922#0" id="t587" to="76737569" type="taxi"/>
 <trip depart="0" from="122529110" id="t586" to="-222389334" type="taxi"/>
 <trip depart="0" from="870581045" id="t585" to="222389332" type="taxi"/>
 <trip depart="0" from="210191069#0" id="t584" to="-76177237" type="taxi"/>
 <trip depart="0" from="-131119719" id="t583" to="-160321184" type="taxi"/>
 <trip depart="0" from="8141209" id="t582" to="-5067357#0" type="taxi"/>
 <trip depart="0" from="53682403#2" id="t581" to="-210338812" type="taxi"/>
 <trip depart="0" from="-8597242#2" id="t580" to="-6517155" type="taxi"/>
 <trip depart="0" from="-139916981" id="t579" to="341640891#1" type="taxi"/>
 <trip depart="0" from="-24855446#0" id="t578" to="-333326807" type="taxi"/>
 <trip depart="0" from="-158762159#0" id="t577" to="8035058" type="taxi"/>
 <trip depart="0" from="4882716" id="t576" to="297640899#0" type="taxi"/>
 <trip depart="0" from="-131119719" id="t575" to="-137353170" type="taxi"/>
 <trip depart="0" from="84016143" id="t574" to="137353434#1" type="taxi"/>
 <trip depart="0" from="128537848#0" id="t573" to="62112126" type="taxi"/>
 <trip depart="0" from="6858598" id="t572" to="992525159#0" type="taxi"/>
 <trip depart="0" from="343475028#4" id="t571" to="-113586399#0" type="taxi"/>
 <trip depart="0" from="-5235974#1" id="t570" to="-441119941" type="taxi"/>
 <trip depart="0" from="77339879" id="t569" to="-112892717" type="taxi"/>
 <trip depart="0" from="24031434#2" id="t568" to="-30016564" type="taxi"/>
 <trip depart="0" from="119051531" id="t567" to="-109380699#0" type="taxi"/>
 <trip depart="0" from="262197283" id="t566" to="-79499704#0" type="taxi"/>
 <trip depart="0" from="-61186334" id="t565" to="4238014" type="taxi"/>
 <trip depart="0" from="807837521#2" id="t564" to="4439880#2" type="taxi"/>
 <trip depart="0" from="177554072" id="t563" to="-95952109" type="taxi"/>
 <trip depart="0" from="79613405" id="t562" to="71833576" type="taxi"/>
 <trip depart="0" from="261374485#6" id="t561" to="10501618" type="taxi"/>
 <trip depart="0" from="137388192#0" id="t560" to="-160797737" type="taxi"/>
 <trip depart="0" from="676058167" id="t559" to="35604664" type="taxi"/>
 <trip depart="0" from="178608169" id="t558" to="-310738357" type="taxi"/>
 <trip depart="0" from="-86527638#0" id="t557" to="134906090" type="taxi"/>
 <trip depart="0" from="-42557002" id="t556" to="122529110" type="taxi"/>
 <trip depart="0" from="-4220241#0" id="t555" to="116761612#0" type="taxi"/>
 <trip depart="0" from="28903879" id="t554" to="-37102267#0" type="taxi"/>
 <trip depart="0" from="-8730073" id="t553" to="-5012177" type="taxi"/>
 <trip depart="0" from="747870977" id="t552" to="-122529100" type="taxi"/>
 <trip depart="0" from="27204698#1" id="t551" to="362830233#1" type="taxi"/>
 <trip depart="0" from="120464288" id="t550" to="-22604699#1" type="taxi"/>
 <trip depart="0" from="28918381#0" id="t549" to="426790116" type="taxi"/>
 <trip depart="0" from="285621686" id="t548" to="-353000468#1" type="taxi"/>
 <trip depart="0" from="8033992" id="t547" to="4233645#0" type="taxi"/>
 <trip depart="0" from="-4643592" id="t546" to="157709644" type="taxi"/>
 <trip depart="0" from="-210994591" id="t545" to="-101158310" type="taxi"/>
 <trip depart="0" from="-233171094#0" id="t544" to="-125371794#2" type="taxi"/>
 <trip depart="0" from="-201786903" id="t543" to="4261803" type="taxi"/>
 <trip depart="0" from="5085840" id="t542" to="217695968#1" type="taxi"/>
 <trip depart="0" from="-127207622" id="t541" to="396449088#0" type="taxi"/>
 <trip depart="0" from="116712800#0" id="t540" to="609759373#0" type="taxi"/>
 <trip depart="0" from="79541008" id="t539" to="139189569" type="taxi"/>
 <trip depart="0" from="157708871" id="t538" to="-113586430#0" type="taxi"/>
 <trip depart="0" from="-95195865#1" id="t537" to="-219022332#1" type="taxi"/>
 <trip depart="0" from="261000089#1" id="t536" to="-125351167#0" type="taxi"/>
 <trip depart="0" from="83163114#1" id="t535" to="-4642321" type="taxi"/>
 <trip depart="0" from="71284400#5" id="t534" to="-314405014" type="taxi"/>
 <trip depart="0" from="-8365705" id="t533" to="-5047215" type="taxi"/>
 <trip depart="0" from="4220244#1" id="t532" to="-183401315#0" type="taxi"/>
 <trip depart="0" from="-4687559#0" id="t531" to="-10372364#0" type="taxi"/>
 <trip depart="0" from="34151517#0" id="t530" to="116761613" type="taxi"/>
 <trip depart="0" from="221166766#0" id="t529" to="-366308473" type="taxi"/>
 <trip depart="0" from="-218470077#2" id="t528" to="238054723#1" type="taxi"/>
 <trip depart="0" from="-35164555#2" id="t527" to="-6933254" type="taxi"/>
 <trip depart="0" from="-42792917#1" id="t526" to="-222307221#0" type="taxi"/>
 <trip depart="0" from="-47520606#0" id="t525" to="-118155450" type="taxi"/>
 <trip depart="0" from="-4233511#0" id="t524" to="-441119941" type="taxi"/>
 <trip depart="0" from="-61579094" id="t523" to="-331546057#1" type="taxi"/>
 <trip depart="0" from="4238028#0" id="t522" to="-261374489#2" type="taxi"/>
 <trip depart="0" from="-224710093#1" id="t521" to="4691968#0" type="taxi"/>
 <trip depart="0" from="-219758418#0" id="t520" to="190721768#1" type="taxi"/>
 <trip depart="0" from="636390378" id="t519" to="-45180352" type="taxi"/>
 <trip depart="0" from="-4689759#1" id="t518" to="191201120" type="taxi"/>
 <trip depart="0" from="4261934" id="t517" to="568356671" type="taxi"/>
 <trip depart="0" from="-359509040#0" id="t516" to="-78322107" type="taxi"/>
 <trip depart="0" from="-364419353#1" id="t515" to="532592462#0" type="taxi"/>
 <trip depart="0" from="130997946" id="t514" to="4238089#1" type="taxi"/>
 <trip depart="0" from="30141935#0" id="t513" to="-15928588#2" type="taxi"/>
 <trip depart="0" from="34261692#0" id="t512" to="-30290950" type="taxi"/>
 <trip depart="0" from="4343682#1" id="t511" to="221090557" type="taxi"/>
 <trip depart="0" from="301710105" id="t510" to="-40392946#1" type="taxi"/>
 <trip depart="0" from="83488857#1" id="t509" to="-30618503#0" type="taxi"/>
 <trip depart="0" from="-29689096#0" id="t508" to="-61410689" type="taxi"/>
 <trip depart="0" from="178179087" id="t507" to="-235047961" type="taxi"/>
 <trip depart="0" from="117099156#1" id="t506" to="63116648#2" type="taxi"/>
 <trip depart="0" from="-38336405#3" id="t505" to="-212687129#1" type="taxi"/>
 <trip depart="0" from="-5230971" id="t504" to="14571549" type="taxi"/>
 <trip depart="0" from="130185165" id="t503" to="-25615043#0" type="taxi"/>
 <trip depart="0" from="503945672#1" id="t502" to="122529099" type="taxi"/>
 <trip depart="0" from="5042409" id="t501" to="63322106#1" type="taxi"/>
 <trip depart="0" from="-230786460" id="t500" to="4650174" type="taxi"/>
 <trip depart="0" from="-345835137" id="t499" to="1006265805#3" type="taxi"/>
 <trip depart="0" from="5011750" id="t498" to="-140499031#0" type="taxi"/>
 <trip depart="0" from="76779516" id="t497" to="-61270477#0" type="taxi"/>
 <trip depart="0" from="-9702970#1" id="t496" to="107356074" type="taxi"/>
 <trip depart="0" from="194445374" id="t495" to="-195898177" type="taxi"/>
 <trip depart="0" from="-6518037" id="t494" to="-10509023" type="taxi"/>
 <trip depart="0" from="132817973#1" id="t493" to="83488895#1" type="taxi"/>
 <trip depart="0" from="179635307" id="t492" to="-122529103" type="taxi"/>
 <trip depart="0" from="-362993458" id="t491" to="-86527626" type="taxi"/>
 <trip depart="0" from="47520606#2" id="t490" to="261374485#6" type="taxi"/>
 <trip depart="0" from="426790110#1" id="t489" to="-108336183#0" type="taxi"/>
 <trip depart="0" from="-5095178#1" id="t488" to="161182980#0" type="taxi"/>
 <trip depart="0" from="24031434#3" id="t487" to="4565131" type="taxi"/>
 <trip depart="0" from="83496334" id="t486" to="-30602646" type="taxi"/>
 <trip depart="0" from="-38028127#0" id="t485" to="232003926" type="taxi"/>
 <trip depart="0" from="-117590609" id="t484" to="30471186#0" type="taxi"/>
 <trip depart="0" from="232003926" id="t483" to="-79821517" type="taxi"/>
 <trip depart="0" from="-4644474#0" id="t482" to="-4565190" type="taxi"/>
 <trip depart="0" from="94701114" id="t481" to="7918313#0" type="taxi"/>
 <trip depart="0" from="10560448#0" id="t480" to="23252585" type="taxi"/>
 <trip depart="0" from="765471498" id="t479" to="-191545882#0" type="taxi"/>
 <trip depart="0" from="-359652547#3" id="t478" to="-116645516" type="taxi"/>
 <trip depart="0" from="6927774" id="t477" to="123544948#1" type="taxi"/>
 <trip depart="0" from="-5206421" id="t476" to="-212694591" type="taxi"/>
 <trip depart="0" from="-100018566#1" id="t475" to="-74315735#0" type="taxi"/>
 <trip depart="0" from="-262038604" id="t474" to="261374485#4" type="taxi"/>
 <trip depart="0" from="-358697049#0" id="t473" to="-230275032" type="taxi"/>
 <trip depart="0" from="35067050" id="t472" to="-337470015#1" type="taxi"/>
 <trip depart="0" from="4872355" id="t471" to="-30016028#2" type="taxi"/>
 <trip depart="0" from="-125482061" id="t470" to="-109380699#1" type="taxi"/>
 <trip depart="0" from="117626827" id="t469" to="-368461304" type="taxi"/>
 <trip depart="0" from="-25587246#0" id="t468" to="-63134322#0" type="taxi"/>
 <trip depart="0" from="5094345#0" id="t467" to="-131472582" type="taxi"/>
 <trip depart="0" from="62161913#1" id="t466" to="28840232#1" type="taxi"/>
 <trip depart="0" from="-117351512" id="t465" to="29507660#0" type="taxi"/>
 <trip depart="0" from="28549853" id="t464" to="78393336#1" type="taxi"/>
 <trip depart="0" from="-25361892#2" id="t463" to="192593501#1" type="taxi"/>
 <trip depart="0" from="-607687261#0" id="t462" to="928770481" type="taxi"/>
 <trip depart="0" from="-75511979#0" id="t461" to="5065866#1" type="taxi"/>
 <trip depart="0" from="-5047225#1" id="t460" to="-22958409" type="taxi"/>
 <trip depart="0" from="886212444" id="t459" to="-5235967#0" type="taxi"/>
 <trip depart="0" from="-117099156#0" id="t458" to="310282677" type="taxi"/>
 <trip depart="0" from="-4644970" id="t457" to="141972842#3" type="taxi"/>
 <trip depart="0" from="-9639072#2" id="t456" to="-22604699#1" type="taxi"/>
 <trip depart="0" from="5094265" id="t455" to="-212694593#4" type="taxi"/>
 <trip depart="0" from="-355057654" id="t454" to="134906090" type="taxi"/>
 <trip depart="0" from="34185680#0" id="t453" to="119051528" type="taxi"/>
 <trip depart="0" from="355057654" id="t452" to="-5235996#1" type="taxi"/>
 <trip depart="0" from="83510232#1" id="t451" to="-140499063" type="taxi"/>
 <trip depart="0" from="10561579#1" id="t450" to="305319118" type="taxi"/>
 <trip depart="0" from="4226192#1" id="t449" to="84016143" type="taxi"/>
 <trip depart="0" from="4705004#2" id="t448" to="546942446#2" type="taxi"/>
 <trip depart="0" from="-142035169#1" id="t447" to="-117934674" type="taxi"/>
 <trip depart="0" from="4685781#2" id="t446" to="-10560572#1" type="taxi"/>
 <trip depart="0" from="39267985" id="t445" to="230874056" type="taxi"/>
 <trip depart="0" from="28231152-AddedOnRampEdge" id="t444" to="5067351#1" type="taxi"/>
 <trip depart="0" from="-86527656" id="t443" to="8597242#0" type="taxi"/>
 <trip depart="0" from="-212706393" id="t442" to="-28857347" type="taxi"/>
 <trip depart="0" from="4686654#2" id="t441" to="-302835876#0" type="taxi"/>
 <trip depart="0" from="-14571550#0" id="t440" to="8597239" type="taxi"/>
 <trip depart="0" from="5047286#2" id="t439" to="30326685#1" type="taxi"/>
 <trip depart="0" from="138630786" id="t438" to="343475028#0" type="taxi"/>
 <trip depart="0" from="-4872799" id="t437" to="46606601" type="taxi"/>
 <trip depart="0" from="-78394402" id="t436" to="87322982" type="taxi"/>
 <trip depart="0" from="-29689095" id="t435" to="-854330910" type="taxi"/>
 <trip depart="0" from="-74011230" id="t434" to="61458829#0" type="taxi"/>
 <trip depart="0" from="44886309" id="t433" to="48126141" type="taxi"/>
 <trip depart="0" from="331442180" id="t432" to="-117615445" type="taxi"/>
 <trip depart="0" from="26968403" id="t431" to="-126548897" type="taxi"/>
 <trip depart="0" from="-210994594#0" id="t430" to="-854330910" type="taxi"/>
 <trip depart="0" from="4263979#0" id="t429" to="125351263" type="taxi"/>
 <trip depart="0" from="46596604#1" id="t428" to="-262197283" type="taxi"/>
 <trip depart="0" from="-44531404" id="t427" to="-122529096#3" type="taxi"/>
 <trip depart="0" from="-10561499" id="t426" to="-6563442#0" type="taxi"/>
 <trip depart="0" from="-84333194" id="t425" to="9702970#1" type="taxi"/>
 <trip depart="0" from="-191374712#0" id="t424" to="6515752" type="taxi"/>
 <trip depart="0" from="309199879#1" id="t423" to="-4254321" type="taxi"/>
 <trip depart="0" from="-6167341" id="t422" to="4229441" type="taxi"/>
 <trip depart="0" from="341878808#2" id="t421" to="-5074063" type="taxi"/>
 <trip depart="0" from="38383704" id="t420" to="-301875350" type="taxi"/>
 <trip depart="0" from="-201790242" id="t419" to="108200488" type="taxi"/>
 <trip depart="0" from="6925807" id="t418" to="-4244482#1" type="taxi"/>
 <trip depart="0" from="-59737642" id="t417" to="285621711#0" type="taxi"/>
 <trip depart="0" from="95195874#2" id="t416" to="147630425#2" type="taxi"/>
 <trip depart="0" from="-224343242" id="t415" to="520873839#0" type="taxi"/>
 <trip depart="0" from="39644113#0" id="t414" to="-15600515" type="taxi"/>
 <trip depart="0" from="354384145" id="t413" to="5091229" type="taxi"/>
 <trip depart="0" from="-137353432" id="t412" to="-75732865" type="taxi"/>
 <trip depart="0" from="-7918313#0" id="t411" to="-36912244#1" type="taxi"/>
 <trip depart="0" from="464117270#0" id="t410" to="-16345605#1" type="taxi"/>
 <trip depart="0" from="-60954295" id="t409" to="43263108" type="taxi"/>
 <trip depart="0" from="-237367748#2" id="t408" to="4220244#0" type="taxi"/>
 <trip depart="0" from="23960853#0" id="t407" to="-46596678" type="taxi"/>
 <trip depart="0" from="-10560646#0" id="t406" to="32873885#0" type="taxi"/>
 <trip depart="0" from="-117099159#3" id="t405" to="36878390#4" type="taxi"/>
 <trip depart="0" from="-116049442" id="t404" to="61412727" type="taxi"/>
 <trip depart="0" from="-5205353#2" id="t403" to="1061462397#2" type="taxi"/>
 <trip depart="0" from="-5067354#2" id="t402" to="42928295" type="taxi"/>
 <trip depart="0" from="28785174" id="t401" to="217695968#1" type="taxi"/>
 <trip depart="0" from="-231402126#0" id="t400" to="-4263847" type="taxi"/>
 <trip depart="0" from="-232184388" id="t399" to="-328253307" type="taxi"/>
 <trip depart="0" from="722929060" id="t398" to="-52582072#5" type="taxi"/>
 <trip depart="0" from="118864079#4" id="t397" to="-125351126#0" type="taxi"/>
 <trip depart="0" from="347676634" id="t396" to="-4691969#0" type="taxi"/>
 <trip depart="0" from="-117099147#2" id="t395" to="-62160923" type="taxi"/>
 <trip depart="0" from="-28539714#0" id="t394" to="-154150880#0" type="taxi"/>
 <trip depart="0" from="335084841#1" id="t393" to="41873559#1" type="taxi"/>
 <trip depart="0" from="-71308341" id="t392" to="25361892#0" type="taxi"/>
 <trip depart="0" from="157703265#0" id="t391" to="28918381#1" type="taxi"/>
 <trip depart="0" from="-139189578#2" id="t390" to="-85553506" type="taxi"/>
 <trip depart="0" from="-46596869" id="t389" to="17265675" type="taxi"/>
 <trip depart="0" from="30605348#1" id="t388" to="-4370495" type="taxi"/>
 <trip depart="0" from="-4644936" id="t387" to="-378106166" type="taxi"/>
 <trip depart="0" from="333144376" id="t386" to="-5095190#0" type="taxi"/>
 <trip depart="0" from="-1020560684" id="t385" to="-58603104" type="taxi"/>
 <trip depart="0" from="107736956#2" id="t384" to="4261936" type="taxi"/>
 <trip depart="0" from="47089825" id="t383" to="-79541051" type="taxi"/>
 <trip depart="0" from="-52255019" id="t382" to="-137996252" type="taxi"/>