<connections xmlns:xsi="http://www.w3.org/2001/XMLSchema-instance" version="1.20" xsi:noNamespaceSchemaLocation="http://sumo.dlr.de/xsd/connections_file.xsd">
    <connection from="-101486395" to="61566225#1" fromLane="0" toLane="0" />
    <connection from="-101486395" to="62115408" fromLane="0" toLane="0" />
    <connection from="-101486395" to="-61566225#0" fromLane="0" toLane="0" />
    <connection from="-101486395" to="61566223" fromLane="0" toLane="0" />

    <connection from="-101520672" to="-335084841#0" fromLane="0" toLane="0" />
    <connection from="-101520672" to="335084841#1" fromLane="0" toLane="0" />
    <connection from="-101520672" to="14571572" fromLane="0" toLane="0" />

    <connection from="-101521565" to="101521562" fromLane="0" toLane="0" />
    <connection from="-101521565" to="-101521569#0" fromLane="0" toLane="0" />
    <connection from="-101521565" to="101521569#1" fromLane="0" toLane="0" />

    <connection from="-101521569#0" to="-122388448#0" fromLane="0" toLane="0" />
    <connection from="-101521569#0" to="122388448#1" fromLane="0" toLane="0" />
    <connection from="-101521569#0" to="138003098" fromLane="0" toLane="0" />

    <connection from="-101731771" to="-121411749#0" fromLane="0" toLane="0" />
    <connection from="-101731771" to="121411754" fromLane="0" toLane="0" />
    <connection from="-101731771" to="121411749#1" fromLane="0" toLane="0" />

    <connection from="-102278339" to="-314422898#0" fromLane="0" toLane="0" />
    <connection from="-102278339" to="314422898#1" fromLane="0" toLane="0" />
    <connection from="-102278339" to="4273629" fromLane="0" toLane="0" />

    <connection from="-102282708#0" to="83171809" fromLane="0" toLane="0" />
    <connection from="-102282708#0" to="-314405014" fromLane="0" toLane="0" />
    <connection from="-102282708#0" to="102282710" fromLane="0" toLane="0" />

    <connection from="-103302383#2" to="103302381" fromLane="0" toLane="0" />
    <connection from="-103302383#2" to="26349564#2" fromLane="0" toLane="1" />
    <connection from="-103302383#2" to="103302383#0" fromLane="0" toLane="0" />

    <connection from="-10357193" to="-87397780" fromLane="0" toLane="0" />
    <connection from="-10357193" to="4643592" fromLane="0" toLane="0" />
    <connection from="-10357193" to="97694267" fromLane="0" toLane="0" />
    <connection from="-10357193" to="10357193" fromLane="0" toLane="0" />

    <connection from="-10357406#1" to="30326722" fromLane="0" toLane="0" />
    <connection from="-10357406#1" to="-30326721" fromLane="0" toLane="0" />
    <connection from="-10357406#1" to="10357406#0" fromLane="0" toLane="0" />

    <connection from="-10357406#2" to="-61367434" fromLane="0" toLane="0" />
    <connection from="-10357406#2" to="-10357406#1" fromLane="0" toLane="0" />
    <connection from="-10357406#2" to="10357406#2" fromLane="0" toLane="0" />

    <connection from="-10363301" to="839402626#1" fromLane="0" toLane="0" />
    <connection from="-10363301" to="-839402626#0" fromLane="0" toLane="0" />
    <connection from="-10363301" to="10363301" fromLane="0" toLane="0" />

    <connection from="-10372364#0" to="-328253309#0" fromLane="0" toLane="0" />
    <connection from="-10372364#0" to="328253309#1" fromLane="0" toLane="0" />
    <connection from="-10372364#0" to="10372364#0" fromLane="0" toLane="0" />

    <connection from="-10372364#1" to="10372376" fromLane="0" toLane="0" />
    <connection from="-10372364#1" to="-10372364#0" fromLane="0" toLane="0" />
    <connection from="-10372364#1" to="10372364#1" fromLane="0" toLane="0" />

    <connection from="-10372376" to="-10372364#0" fromLane="0" toLane="0" />
    <connection from="-10372376" to="10372364#1" fromLane="0" toLane="0" />
    <connection from="-10372376" to="10372376" fromLane="0" toLane="0" />

    <connection from="-10372461" to="-126709272#1" fromLane="0" toLane="0" />
    <connection from="-10372461" to="126709272#2" fromLane="0" toLane="0" />
    <connection from="-10372461" to="10372461" fromLane="0" toLane="0" />

    <connection from="-10373960" to="10373960" fromLane="0" toLane="0" />

    <connection from="-10374052" to="-211199290#1" fromLane="0" toLane="0" />
    <connection from="-10374052" to="211199290#2" fromLane="0" toLane="0" />
    <connection from="-10374052" to="10374052" fromLane="0" toLane="0" />

    <connection from="-10374120" to="125683988" fromLane="0" toLane="0" />

    <connection from="-10425852" to="14573382#3" fromLane="0" toLane="0" />
    <connection from="-10425852" to="-14573382#2" fromLane="0" toLane="0" />
    <connection from="-10425852" to="10425852" fromLane="0" toLane="0" />

    <connection from="-10425858" to="14573382#2" fromLane="0" toLane="0" />
    <connection from="-10425858" to="-14573382#1" fromLane="0" toLane="0" />
    <connection from="-10425858" to="10425858" fromLane="0" toLane="0" />

    <connection from="-10425883" to="-14573382#0" fromLane="0" toLane="0" />
    <connection from="-10425883" to="14573382#1" fromLane="0" toLane="0" />
    <connection from="-10425883" to="10425883" fromLane="0" toLane="0" />

    <connection from="-10426011#1" to="166533654#1" fromLane="0" toLane="0" />
    <connection from="-10426011#1" to="10425893#1" fromLane="0" toLane="0" />
    <connection from="-10426011#1" to="10426011#1" fromLane="0" toLane="0" />

    <connection from="-10426021#1" to="10425893#2" fromLane="0" toLane="0" />
    <connection from="-10426021#1" to="166533651" fromLane="0" toLane="0" />
    <connection from="-10426021#1" to="10426021#1" fromLane="0" toLane="0" />

    <connection from="-10426171#0" to="-16345605#0" fromLane="0" toLane="0" />
    <connection from="-10426171#0" to="16345605#1" fromLane="0" toLane="0" />
    <connection from="-10426171#0" to="10426171#0" fromLane="0" toLane="0" />

    <connection from="-10426171#1" to="-10426171#0" fromLane="0" toLane="0" />
    <connection from="-10426171#1" to="10426173" fromLane="0" toLane="0" />
    <connection from="-10426171#1" to="10426171#1" fromLane="0" toLane="0" />

    <connection from="-10426173" to="10426171#1" fromLane="0" toLane="0" />
    <connection from="-10426173" to="-10426171#0" fromLane="0" toLane="0" />
    <connection from="-10426173" to="10426173" fromLane="0" toLane="0" />

    <connection from="-10426204#0" to="-183247519#0" fromLane="0" toLane="0" />
    <connection from="-10426204#0" to="183247519#1" fromLane="0" toLane="0" />
    <connection from="-10426204#0" to="10426204#0" fromLane="0" toLane="0" />

    <connection from="-10426204#1" to="-10426204#0" fromLane="0" toLane="0" />
    <connection from="-10426204#1" to="10426219" fromLane="0" toLane="0" />
    <connection from="-10426204#1" to="10426204#1" fromLane="0" toLane="0" />

    <connection from="-10426219" to="10426204#1" fromLane="0" toLane="0" />
    <connection from="-10426219" to="-10426204#0" fromLane="0" toLane="0" />
    <connection from="-10426219" to="10426219" fromLane="0" toLane="0" />

    <connection from="-10502291#1" to="18648957#0" fromLane="0" toLane="0" />
    <connection from="-10502291#1" to="132817973#1" fromLane="0" toLane="0" />
    <connection from="-10502291#1" to="10502291#1" fromLane="0" toLane="0" />

    <connection from="-1052613455" to="1052613455" fromLane="0" toLane="0" />

    <connection from="-10557968" to="-47089824" fromLane="0" toLane="0" />

    <connection from="-10558007#0" to="8141209" fromLane="0" toLane="0" />
    <connection from="-10558007#0" to="5234697" fromLane="0" toLane="0" />
    <connection from="-10558007#0" to="10558007#0" fromLane="0" toLane="0" />

    <connection from="-10558102" to="84639218" fromLane="0" toLane="0" />

    <connection from="-10558824" to="286175725#3" fromLane="0" toLane="0" />
    <connection from="-10558824" to="-286175725#2" fromLane="0" toLane="0" />
    <connection from="-10558824" to="10558824" fromLane="0" toLane="0" />

    <connection from="-10559035" to="-86527626" fromLane="0" toLane="0" />
    <connection from="-10559035" to="-349909771" fromLane="0" toLane="0" />
    <connection from="-10559035" to="26368312" fromLane="0" toLane="0" />
    <connection from="-10559035" to="10559035" fromLane="0" toLane="0" />

    <connection from="-10559379" to="848436001#1" fromLane="0" toLane="0" visibility="9.00" />

    <connection from="-1069054067" to="234902999" fromLane="0" toLane="0" />
    <connection from="-1069054067" to="301503168#1" fromLane="0" toLane="0" />

    <connection from="-1075684663#0" to="1075684663#0" fromLane="0" toLane="0" />

    <connection from="-1075684663#1" to="-1075684663#0" fromLane="0" toLane="0" />
    <connection from="-1075684663#1" to="1075684663#1" fromLane="0" toLane="0" />

    <connection from="-1076691210" to="22604704#0" fromLane="0" toLane="0" />
    <connection from="-1076691210" to="22604704#0" fromLane="1" toLane="1" />
    <connection from="-1076691210" to="22604704#0" fromLane="2" toLane="2" />

    <connection from="-1080290022" to="30001659" fromLane="0" toLane="0" />
    <connection from="-1080290022" to="29509214" fromLane="0" toLane="0" />

    <connection from="-116049438" to="-122529096#5" fromLane="0" toLane="0" />
    <connection from="-116049438" to="122529096#6" fromLane="0" toLane="0" />
    <connection from="-116049438" to="116049438" fromLane="0" toLane="0" />

    <connection from="-116049439#0" to="118864079#2" fromLane="0" toLane="0" />
    <connection from="-116049439#0" to="-118864079#1" fromLane="0" toLane="0" />
    <connection from="-116049439#0" to="116049439#0" fromLane="0" toLane="0" />

    <connection from="-116049439#1" to="-929213813" fromLane="0" toLane="0" />
    <connection from="-116049439#1" to="-116049439#0" fromLane="0" toLane="0" />
    <connection from="-116049439#1" to="116049439#1" fromLane="0" toLane="0" />

    <connection from="-116049442" to="-366616515" fromLane="0" toLane="0" />
    <connection from="-116049442" to="222307221#0" fromLane="0" toLane="0" />
    <connection from="-116049442" to="116049442" fromLane="0" toLane="0" />

    <connection from="-116049443#1" to="116049443#1" fromLane="0" toLane="0" />

    <connection from="-116049443#2" to="122529094#9" fromLane="0" toLane="0" />
    <connection from="-116049443#2" to="-116049443#1" fromLane="0" toLane="0" />
    <connection from="-116049443#2" to="-122529094#8" fromLane="0" toLane="0" />
    <connection from="-116049443#2" to="116049443#2" fromLane="0" toLane="0" />

    <connection from="-116049443#3" to="122529096#7" fromLane="0" toLane="0" />
    <connection from="-116049443#3" to="-116049443#2" fromLane="0" toLane="0" />
    <connection from="-116049443#3" to="-122529096#6" fromLane="0" toLane="0" />
    <connection from="-116049443#3" to="116049443#3" fromLane="0" toLane="0" />

    <connection from="-116049444#0" to="116049444#0" fromLane="0" toLane="0" />

    <connection from="-116049444#1" to="122529094#10" fromLane="0" toLane="0" />
    <connection from="-116049444#1" to="-116049444#0" fromLane="0" toLane="0" />
    <connection from="-116049444#1" to="-122529094#9" fromLane="0" toLane="0" />
    <connection from="-116049444#1" to="116049444#1" fromLane="0" toLane="0" />

    <connection from="-116049788#0" to="858662599" fromLane="0" toLane="0" />
    <connection from="-116049788#0" to="864666000" fromLane="0" toLane="0" />

    <connection from="-117099133" to="24399330#1" fromLane="0" toLane="0" />
    <connection from="-117099133" to="-24399330#0" fromLane="0" toLane="0" />
    <connection from="-117099133" to="117099133" fromLane="0" toLane="0" />

    <connection from="-117099147#0" to="117099147#0" fromLane="0" toLane="0" />

    <connection from="-117099147#2" to="-24399329" fromLane="0" toLane="0" />
    <connection from="-117099147#2" to="-117099147#0" fromLane="0" toLane="0" />
    <connection from="-117099147#2" to="45180352" fromLane="0" toLane="0" />
    <connection from="-117099147#2" to="117099147#2" fromLane="0" toLane="0" />

    <connection from="-117099153" to="26040355#2" fromLane="0" toLane="0" />
    <connection from="-117099153" to="-26040355#1" fromLane="0" toLane="0" />
    <connection from="-117099153" to="117099153" fromLane="0" toLane="0" />

    <connection from="-117099156#1" to="117099156#1" fromLane="0" toLane="0" />

    <connection from="-117099156#2" to="-117099156#1" fromLane="0" toLane="0" />
    <connection from="-117099156#2" to="30786474" fromLane="0" toLane="0" />
    <connection from="-117099156#2" to="-26085515#0" fromLane="0" toLane="0" />
    <connection from="-117099156#2" to="26085515#1" fromLane="0" toLane="0" />
    <connection from="-117099156#2" to="117099156#2" fromLane="0" toLane="0" />

    <connection from="-117099159#0" to="117099159#0" fromLane="0" toLane="0" />

    <connection from="-117099159#1" to="-117099159#0" fromLane="0" toLane="0" />
    <connection from="-117099159#1" to="-26085515#1" fromLane="0" toLane="0" />
    <connection from="-117099159#1" to="-117099156#2" fromLane="0" toLane="0" />
    <connection from="-117099159#1" to="26085515#2" fromLane="0" toLane="0" />
    <connection from="-117099159#1" to="117099159#1" fromLane="0" toLane="0" />

    <connection from="-117099159#2" to="-26085515#2" fromLane="0" toLane="0" />
    <connection from="-117099159#2" to="-117099159#1" fromLane="0" toLane="0" />
    <connection from="-117099159#2" to="26085515#3" fromLane="0" toLane="0" />
    <connection from="-117099159#2" to="117099159#2" fromLane="0" toLane="0" />

    <connection from="-117099159#3" to="-26085515#3" fromLane="0" toLane="0" />
    <connection from="-117099159#3" to="-117099159#2" fromLane="0" toLane="0" />
    <connection from="-117099159#3" to="26085515#4" fromLane="0" toLane="0" />
    <connection from="-117099159#3" to="117099159#3" fromLane="0" toLane="0" />

    <connection from="-117099159#4" to="-26085515#4" fromLane="0" toLane="0" />
    <connection from="-117099159#4" to="-117099159#3" fromLane="0" toLane="0" />
    <connection from="-117099159#4" to="26085515#5" fromLane="0" toLane="0" />
    <connection from="-117099159#4" to="117099159#4" fromLane="0" toLane="0" />

    <connection from="-117099159#5" to="-26085515#5" fromLane="0" toLane="0" />
    <connection from="-117099159#5" to="-117099159#4" fromLane="0" toLane="0" />
    <connection from="-117099159#5" to="26085515#0" fromLane="0" toLane="0" />
    <connection from="-117099159#5" to="-30786474" fromLane="0" toLane="0" />
    <connection from="-117099159#5" to="-117099133" fromLane="0" toLane="0" />
    <connection from="-117099159#5" to="117099159#5" fromLane="0" toLane="0" />

    <connection from="-117099170" to="-57718377" fromLane="0" toLane="0" />
    <connection from="-117099170" to="24399330#0" fromLane="0" toLane="0" />
    <connection from="-117099170" to="117099170" fromLane="0" toLane="0" />

    <connection from="-117623505" to="286342117" fromLane="0" toLane="0" />
    <connection from="-117623505" to="286342118#0" fromLane="0" toLane="0" />
    <connection from="-117623505" to="117623505" fromLane="0" toLane="0" />

    <connection from="-117623507" to="-53357944" fromLane="0" toLane="0" />
    <connection from="-117623507" to="284410132" fromLane="0" toLane="0" />
    <connection from="-117623507" to="117623507" fromLane="0" toLane="0" />

    <connection from="-117624636#0" to="-117624637#0" fromLane="0" toLane="0" />
    <connection from="-117624636#0" to="117624637#1" fromLane="0" toLane="0" />
    <connection from="-117624636#0" to="117624636#0" fromLane="0" toLane="0" />

    <connection from="-117624636#1" to="-26378767#1" fromLane="0" toLane="0" />
    <connection from="-117624636#1" to="-117624636#0" fromLane="0" toLane="0" />
    <connection from="-117624636#1" to="117624636#1" fromLane="0" toLane="0" />

    <connection from="-117624637#0" to="26378767#1" fromLane="0" toLane="0" />
    <connection from="-117624637#0" to="-26378767#0" fromLane="0" toLane="0" />
    <connection from="-117624637#0" to="117624637#0" fromLane="0" toLane="0" />

    <connection from="-117624637#1" to="117624636#0" fromLane="0" toLane="0" />
    <connection from="-117624637#1" to="-117624637#0" fromLane="0" toLane="0" />
    <connection from="-117624637#1" to="117624637#1" fromLane="0" toLane="0" />

    <connection from="-117625588" to="-284410129" fromLane="0" toLane="0" />
    <connection from="-117625588" to="117625588" fromLane="0" toLane="0" />

    <connection from="-117631291#0" to="48215535#0" fromLane="0" toLane="0" />
    <connection from="-117631291#0" to="117631291#0" fromLane="0" toLane="0" />

    <connection from="-117639101#0" to="51722315#1" fromLane="0" toLane="0" />
    <connection from="-117639101#0" to="-51722315#0" fromLane="0" toLane="0" />
    <connection from="-117639101#0" to="117639101#0" fromLane="0" toLane="0" />

    <connection from="-117639101#1" to="-117639101#0" fromLane="0" toLane="0" />
    <connection from="-117639101#1" to="117643608" fromLane="0" toLane="0" />
    <connection from="-117639101#1" to="117639101#1" fromLane="0" toLane="0" />

    <connection from="-117643608" to="117639101#1" fromLane="0" toLane="0" />
    <connection from="-117643608" to="-117639101#0" fromLane="0" toLane="0" />
    <connection from="-117643608" to="117643608" fromLane="0" toLane="0" />

    <connection from="-117643614#0" to="-83292788" fromLane="0" toLane="0" />
    <connection from="-117643614#0" to="29508077" fromLane="0" toLane="0" />
    <connection from="-117643614#0" to="117643614#0" fromLane="0" toLane="0" />

    <connection from="-117643614#1" to="-117643614#0" fromLane="0" toLane="0" />
    <connection from="-117643614#1" to="117643622" fromLane="0" toLane="0" />
    <connection from="-117643614#1" to="117643614#1" fromLane="0" toLane="0" />

    <connection from="-117643616" to="-74011129#0" fromLane="0" toLane="0" />
    <connection from="-117643616" to="74011129#1" fromLane="0" toLane="0" />
    <connection from="-117643616" to="117643616" fromLane="0" toLane="0" />

    <connection from="-117643622" to="117643614#1" fromLane="0" toLane="0" />
    <connection from="-117643622" to="-117643614#0" fromLane="0" toLane="0" />
    <connection from="-117643622" to="117643622" fromLane="0" toLane="0" />

    <connection from="-117643624" to="62106371#1" fromLane="0" toLane="0" />
    <connection from="-117643624" to="-62106371#0" fromLane="0" toLane="0" />
    <connection from="-117643624" to="117643624" fromLane="0" toLane="0" />

    <connection from="-117649850#0" to="83292791#1" fromLane="0" toLane="0" />
    <connection from="-117649850#0" to="-83292791#0" fromLane="0" toLane="0" />
    <connection from="-117649850#0" to="117649850#0" fromLane="0" toLane="0" />

    <connection from="-117649850#1" to="-117649850#0" fromLane="0" toLane="0" />
    <connection from="-117649850#1" to="-117649858" fromLane="0" toLane="0" />
    <connection from="-117649850#1" to="117649850#1" fromLane="0" toLane="0" />

    <connection from="-117649858" to="-117649862#0" fromLane="0" toLane="0" />
    <connection from="-117649858" to="117649862#1" fromLane="0" toLane="0" />
    <connection from="-117649858" to="117649858" fromLane="0" toLane="0" />

    <connection from="-117649862#0" to="63322102#2" fromLane="0" toLane="0" />
    <connection from="-117649862#0" to="-63322102#1" fromLane="0" toLane="0" />
    <connection from="-117649862#0" to="117649862#0" fromLane="0" toLane="0" />

    <connection from="-117649862#1" to="117649858" fromLane="0" toLane="0" />
    <connection from="-117649862#1" to="-117649862#0" fromLane="0" toLane="0" />
    <connection from="-117649862#1" to="117649862#1" fromLane="0" toLane="0" />

    <connection from="-117649862#2" to="-117649862#1" fromLane="0" toLane="0" />
    <connection from="-117649862#2" to="-51306014" fromLane="0" toLane="0" />
    <connection from="-117649862#2" to="117649862#2" fromLane="0" toLane="0" />

    <connection from="-117649868" to="-23960853#0" fromLane="1" toLane="0" />
    <connection from="-117649868" to="117649868" fromLane="1" toLane="0" />

    <connection from="-117649887" to="63322106#1" fromLane="0" toLane="0" />
    <connection from="-117649887" to="-63322106#0" fromLane="0" toLane="0" />
    <connection from="-117649887" to="117649887" fromLane="0" toLane="0" />

    <connection from="-117654815#0" to="98158886#0" fromLane="0" toLane="0" />
    <connection from="-117654815#0" to="-117654819#1" fromLane="0" toLane="0" />
    <connection from="-117654815#0" to="117654815#0" fromLane="0" toLane="0" />

    <connection from="-117654815#1" to="26295654#0" fromLane="0" toLane="0" />
    <connection from="-117654815#1" to="-117654815#0" fromLane="0" toLane="0" />
    <connection from="-117654815#1" to="-26295654#3" fromLane="0" toLane="0" />
    <connection from="-117654815#1" to="117654815#1" fromLane="0" toLane="0" />

    <connection from="-117654815#2" to="-98158885#0" fromLane="0" toLane="0" />
    <connection from="-117654815#2" to="-117654815#1" fromLane="0" toLane="0" />
    <connection from="-117654815#2" to="98158885#1" fromLane="0" toLane="0" />
    <connection from="-117654815#2" to="117654815#2" fromLane="0" toLane="0" />

    <connection from="-117654815#3" to="-26295654#1" fromLane="0" toLane="0" />
    <connection from="-117654815#3" to="-117654815#2" fromLane="0" toLane="0" />
    <connection from="-117654815#3" to="26295654#2" fromLane="0" toLane="0" />
    <connection from="-117654815#3" to="117654815#3" fromLane="0" toLane="0" />

    <connection from="-117654817" to="-78343352#0" fromLane="0" toLane="0" />
    <connection from="-117654817" to="78343352#1" fromLane="0" toLane="0" />
    <connection from="-117654817" to="117654817" fromLane="0" toLane="0" />

    <connection from="-117654819#0" to="-78343358#0" fromLane="0" toLane="0" />
    <connection from="-117654819#0" to="78343358#1" fromLane="0" toLane="0" />
    <connection from="-117654819#0" to="117654819#0" fromLane="0" toLane="0" />

    <connection from="-117654819#1" to="-117656063#1" fromLane="0" toLane="0" />
    <connection from="-117654819#1" to="-117654819#0" fromLane="0" toLane="0" />
    <connection from="-117654819#1" to="117654819#1" fromLane="0" toLane="0" />

    <connection from="-117654826" to="24398612" fromLane="0" toLane="0" />

    <connection from="-117656063#0" to="42792917#0" fromLane="0" toLane="0" />
    <connection from="-117656063#0" to="-101731771" fromLane="0" toLane="0" />
    <connection from="-117656063#0" to="117656063#0" fromLane="0" toLane="0" />

    <connection from="-117656063#1" to="-117656063#0" fromLane="0" toLane="0" />
    <connection from="-117656063#1" to="117656067#0" fromLane="0" toLane="0" />
    <connection from="-117656063#1" to="117656063#1" fromLane="0" toLane="0" />

    <connection from="-117656067#0" to="117656063#1" fromLane="0" toLane="0" />
    <connection from="-117656067#0" to="-117656063#0" fromLane="0" toLane="0" />
    <connection from="-117656067#0" to="117656067#0" fromLane="0" toLane="0" />

    <connection from="-117656067#1" to="78343351" fromLane="0" toLane="0" />
    <connection from="-117656067#1" to="-117656067#0" fromLane="0" toLane="0" />
    <connection from="-117656067#1" to="117656067#1" fromLane="0" toLane="0" />

    <connection from="-118155448" to="-24031456#4" fromLane="0" toLane="0" />
    <connection from="-118155448" to="24031456#5" fromLane="0" toLane="0" />
    <connection from="-118155448" to="118155448" fromLane="0" toLane="0" />

    <connection from="-118155450" to="-24031456#3" fromLane="0" toLane="0" />
    <connection from="-118155450" to="24031456#4" fromLane="0" toLane="0" />
    <connection from="-118155450" to="118155450" fromLane="0" toLane="0" />

    <connection from="-118155452#0" to="-118155456#1" fromLane="0" toLane="0" />
    <connection from="-118155452#0" to="641978198" fromLane="0" toLane="0" />
    <connection from="-118155452#0" to="118155456#2" fromLane="0" toLane="0" />
    <connection from="-118155452#0" to="118155452#0" fromLane="0" toLane="0" />

    <connection from="-118155452#1" to="24031456#1" fromLane="0" toLane="0" />
    <connection from="-118155452#1" to="-118155452#0" fromLane="0" toLane="0" />
    <connection from="-118155452#1" to="-24031456#0" fromLane="0" toLane="0" />
    <connection from="-118155452#1" to="118155452#1" fromLane="0" toLane="0" />

    <connection from="-118155453" to="34776023#1" fromLane="0" toLane="0" />
    <connection from="-118155453" to="-34776023#0" fromLane="0" toLane="0" />
    <connection from="-118155453" to="118155453" fromLane="0" toLane="0" />

    <connection from="-118155456#0" to="118155456#0" fromLane="0" toLane="0" />

    <connection from="-118155456#1" to="-26037066" fromLane="0" toLane="0" />
    <connection from="-118155456#1" to="-118155456#0" fromLane="0" toLane="0" />
    <connection from="-118155456#1" to="118155456#1" fromLane="0" toLane="0" />

    <connection from="-118155456#2" to="118155452#0" fromLane="0" toLane="0" />
    <connection from="-118155456#2" to="-118155456#1" fromLane="0" toLane="0" />
    <connection from="-118155456#2" to="641978198" fromLane="0" toLane="0" />
    <connection from="-118155456#2" to="118155456#2" fromLane="0" toLane="0" />

    <connection from="-118155460" to="-24031456#5" fromLane="0" toLane="0" />
    <connection from="-118155460" to="24031456#6" fromLane="0" toLane="0" />
    <connection from="-118155460" to="118155460" fromLane="0" toLane="0" />

    <connection from="-118864079#0" to="118864079#0" fromLane="0" toLane="0" />

    <connection from="-118864079#1" to="-24399325#0" fromLane="0" toLane="0" />
    <connection from="-118864079#1" to="-118864079#0" fromLane="0" toLane="0" />
    <connection from="-118864079#1" to="24399325#1" fromLane="0" toLane="0" />
    <connection from="-118864079#1" to="118864079#1" fromLane="0" toLane="0" />

    <connection from="-118864079#2" to="-118864079#1" fromLane="0" toLane="0" />
    <connection from="-118864079#2" to="116049439#0" fromLane="0" toLane="0" />
    <connection from="-118864079#2" to="118864079#2" fromLane="0" toLane="0" />

    <connection from="-118864079#3" to="-118864079#2" fromLane="0" toLane="0" />
    <connection from="-118864079#3" to="-116049442" fromLane="0" toLane="0" />
    <connection from="-118864079#3" to="118864079#3" fromLane="0" toLane="0" />

    <connection from="-118864079#4" to="118864084" fromLane="0" toLane="0" />
    <connection from="-118864079#4" to="-118864079#3" fromLane="0" toLane="0" />
    <connection from="-118864079#4" to="118864079#4" fromLane="0" toLane="0" />

    <connection from="-118864084" to="-118864079#3" fromLane="0" toLane="0" />
    <connection from="-118864084" to="118864079#4" fromLane="0" toLane="0" />
    <connection from="-118864084" to="118864084" fromLane="0" toLane="0" />

    <connection from="-118864085" to="-222307221#0" fromLane="0" toLane="0" />
    <connection from="-118864085" to="222307221#1" fromLane="0" toLane="0" />
    <connection from="-118864085" to="118864085" fromLane="0" toLane="0" />

    <connection from="-118869284#0" to="118869284#0" fromLane="0" toLane="0" />

    <connection from="-118869284#1" to="122529094#4" fromLane="0" toLane="0" />
    <connection from="-118869284#1" to="-118869284#0" fromLane="0" toLane="0" />
    <connection from="-118869284#1" to="-122529094#3" fromLane="0" toLane="0" />
    <connection from="-118869284#1" to="118869284#1" fromLane="0" toLane="0" />

    <connection from="-118869285" to="26187755#0" fromLane="0" toLane="0" />
    <connection from="-118869285" to="26187755#0" fromLane="0" toLane="1" />

    <connection from="-118869287" to="122529096#3" fromLane="0" toLane="0" />
    <connection from="-118869287" to="-122529096#2" fromLane="0" toLane="0" />
    <connection from="-118869287" to="118869287" fromLane="0" toLane="0" />

    <connection from="-121411748#1" to="83173314" fromLane="0" toLane="0" />
    <connection from="-121411748#1" to="68415604" fromLane="0" toLane="0" />
    <connection from="-121411748#1" to="121411748#1" fromLane="0" toLane="0" />

    <connection from="-121411749#0" to="286243203#1" fromLane="0" toLane="0" />
    <connection from="-121411749#0" to="-286243203#0" fromLane="0" toLane="0" />
    <connection from="-121411749#0" to="121411749#0" fromLane="0" toLane="0" />

    <connection from="-121411752" to="-53682403#1" fromLane="0" toLane="0" />
    <connection from="-121411752" to="53682403#2" fromLane="0" toLane="0" />
    <connection from="-121411752" to="121411752" fromLane="0" toLane="0" />

    <connection from="-121411754" to="121411749#1" fromLane="0" toLane="0" />
    <connection from="-121411754" to="-121411749#0" fromLane="0" toLane="0" />
    <connection from="-121411754" to="121411754" fromLane="0" toLane="0" />

    <connection from="-122388448#0" to="-138350778#0" fromLane="0" toLane="0" />
    <connection from="-122388448#0" to="138350778#1" fromLane="0" toLane="0" />
    <connection from="-122388448#0" to="138350779" fromLane="0" toLane="0" />

    <connection from="-122388448#1" to="138003098" fromLane="0" toLane="0" />
    <connection from="-122388448#1" to="-122388448#0" fromLane="0" toLane="0" />
    <connection from="-122388448#1" to="122388448#1" fromLane="0" toLane="0" />

    <connection from="-122398104" to="138350779" fromLane="0" toLane="0" />
    <connection from="-122398104" to="-138350778#0" fromLane="0" toLane="0" />
    <connection from="-122398104" to="138350778#1" fromLane="0" toLane="0" />

    <connection from="-122529094#0" to="122529094#0" fromLane="0" toLane="0" />

    <connection from="-122529094#1" to="122529102#3" fromLane="0" toLane="0" />
    <connection from="-122529094#1" to="-122529094#0" fromLane="0" toLane="0" />
    <connection from="-122529094#1" to="-122529102#2" fromLane="0" toLane="0" />
    <connection from="-122529094#1" to="122529094#1" fromLane="0" toLane="0" />

    <connection from="-122529094#10" to="-116049444#0" fromLane="0" toLane="0" />