<?xml version="1.0" encoding="UTF-8"?>

<!-- generated on 2024-07-11 17:47:45.078428 by generateParkingAreas.py v1_19_0+2078-88426099c44
<configuration>
    <net-file value="C:\Users\bochenin\RL project\materials\ridesharing\Helsinki\toy example\demand generation\area1_gcc_plain.net.xml"/>
    <output-file value="C:\Users\bochenin\RL project\materials\ridesharing\Helsinki\toy example\demand generation\area1_gcc_parkingareas_plain.add.xml"/>
</configuration>
-->

<additional xmlns:xsi="http://www.w3.org/2001/XMLSchema-instance" xsi:noNamespaceSchemaLocation="http://sumo.dlr.de/xsd/additional_file.xsd">
    <parkingArea id="pa-101486395" lane="-101486395_0" roadsideCapacity="20" length="5"/>
    <parkingArea id="pa-101520672" lane="-101520672_0" roadsideCapacity="14" length="5"/>
    <parkingArea id="pa-101521565" lane="-101521565_0" roadsideCapacity="5" length="5"/>
    <parkingArea id="pa-101521569#0" lane="-101521569#0_0" roadsideCapacity="31" length="5"/>
    <parkingArea id="pa-101731771" lane="-101731771_0" roadsideCapacity="21" length="5"/>
    <parkingArea id="pa-102278339" lane="-102278339_0" roadsideCapacity="16" length="5"/>
    <parkingArea id="pa-102282708#0" lane="-102282708#0_0" roadsideCapacity="4" length="5"/>
    <parkingArea id="pa-103302383#2" lane="-103302383#2_0" roadsideCapacity="2" length="5"/>
    <parkingArea id="pa-10357193" lane="-10357193_0" roadsideCapacity="3" length="5"/>
    <parkingArea id="pa-10363301" lane="-10363301_0" roadsideCapacity="18" length="5"/>
    <parkingArea id="pa-10372364#0" lane="-10372364#0_0" roadsideCapacity="28" length="5"/>
    <parkingArea id="pa-10372364#1" lane="-10372364#1_0" roadsideCapacity="27" length="5"/>
    <parkingArea id="pa-10372376" lane="-10372376_0" roadsideCapacity="6" length="5"/>
    <parkingArea id="pa-10372461" lane="-10372461_0" roadsideCapacity="9" length="5"/>
    <parkingArea id="pa-10373960" lane="-10373960_0" roadsideCapacity="44" length="5"/>
    <parkingArea id="pa-10374052" lane="-10374052_0" roadsideCapacity="21" length="5"/>
    <parkingArea id="pa-10374120" lane="-10374120_0" roadsideCapacity="25" length="5"/>
    <parkingArea id="pa-10425852" lane="-10425852_0" roadsideCapacity="11" length="5"/>
    <parkingArea id="pa-10425858" lane="-10425858_0" roadsideCapacity="11" length="5"/>
    <parkingArea id="pa-10425883" lane="-10425883_0" roadsideCapacity="8" length="5"/>
    <parkingArea id="pa-10426011#1" lane="-10426011#1_0" roadsideCapacity="5" length="5"/>
    <parkingArea id="pa-10426021#1" lane="-10426021#1_0" roadsideCapacity="4" length="5"/>
    <parkingArea id="pa-10426171#0" lane="-10426171#0_0" roadsideCapacity="1" length="5"/>
    <parkingArea id="pa-10426171#1" lane="-10426171#1_0" roadsideCapacity="29" length="5"/>
    <parkingArea id="pa-10426173" lane="-10426173_0" roadsideCapacity="8" length="5"/>
    <parkingArea id="pa-10426204#0" lane="-10426204#0_0" roadsideCapacity="10" length="5"/>
    <parkingArea id="pa-10426204#1" lane="-10426204#1_0" roadsideCapacity="41" length="5"/>
    <parkingArea id="pa-10426219" lane="-10426219_0" roadsideCapacity="19" length="5"/>
    <parkingArea id="pa-10502291#1" lane="-10502291#1_0" roadsideCapacity="10" length="5"/>
    <parkingArea id="pa-1052613455" lane="-1052613455_0" roadsideCapacity="9" length="5"/>
    <parkingArea id="pa-10557968" lane="-10557968_0" roadsideCapacity="37" length="5"/>
    <parkingArea id="pa-10558007#0" lane="-10558007#0_0" roadsideCapacity="3" length="5"/>
    <parkingArea id="pa-10558102" lane="-10558102_0" roadsideCapacity="36" length="5"/>
    <parkingArea id="pa-10559035" lane="-10559035_0" roadsideCapacity="7" length="5"/>
    <parkingArea id="pa-10559379" lane="-10559379_0" roadsideCapacity="64" length="5"/>
    <parkingArea id="pa-1069054067" lane="-1069054067_0" roadsideCapacity="15" length="5"/>
    <parkingArea id="pa-1075684663#0" lane="-1075684663#0_0" roadsideCapacity="4" length="5"/>
    <parkingArea id="pa-1075684663#1" lane="-1075684663#1_0" roadsideCapacity="3" length="5"/>
    <parkingArea id="pa-1080290022" lane="-1080290022_0" roadsideCapacity="55" length="5"/>
    <parkingArea id="pa-116049438" lane="-116049438_0" roadsideCapacity="16" length="5"/>
    <parkingArea id="pa-116049439#0" lane="-116049439#0_0" roadsideCapacity="13" length="5"/>
    <parkingArea id="pa-116049439#1" lane="-116049439#1_0" roadsideCapacity="11" length="5"/>
    <parkingArea id="pa-116049442" lane="-116049442_0" roadsideCapacity="16" length="5"/>
    <parkingArea id="pa-116049443#1" lane="-116049443#1_0" roadsideCapacity="16" length="5"/>
    <parkingArea id="pa-116049443#2" lane="-116049443#2_0" roadsideCapacity="16" length="5"/>
    <parkingArea id="pa-116049443#3" lane="-116049443#3_0" roadsideCapacity="30" length="5"/>
    <parkingArea id="pa-116049444#0" lane="-116049444#0_0" roadsideCapacity="18" length="5"/>
    <parkingArea id="pa-116049444#1" lane="-116049444#1_0" roadsideCapacity="20" length="5"/>
    <parkingArea id="pa-116049788#0" lane="-116049788#0_0" roadsideCapacity="8" length="5"/>
    <parkingArea id="pa-117099133" lane="-117099133_0" roadsideCapacity="18" length="5"/>
    <parkingArea id="pa-117099147#2" lane="-117099147#2_0" roadsideCapacity="26" length="5"/>
    <parkingArea id="pa-117099153" lane="-117099153_0" roadsideCapacity="11" length="5"/>
    <parkingArea id="pa-117099156#1" lane="-117099156#1_0" roadsideCapacity="48" length="5"/>
    <parkingArea id="pa-117099159#0" lane="-117099159#0_0" roadsideCapacity="51" length="5"/>
    <parkingArea id="pa-117099159#2" lane="-117099159#2_0" roadsideCapacity="1" length="5"/>
    <parkingArea id="pa-117099159#3" lane="-117099159#3_0" roadsideCapacity="1" length="5"/>
    <parkingArea id="pa-117099159#4" lane="-117099159#4_0" roadsideCapacity="1" length="5"/>
    <parkingArea id="pa-117099159#5" lane="-117099159#5_0" roadsideCapacity="12" length="5"/>
    <parkingArea id="pa-117099170" lane="-117099170_0" roadsideCapacity="4" length="5"/>
    <parkingArea id="pa-117623505" lane="-117623505_0" roadsideCapacity="25" length="5"/>
    <parkingArea id="pa-117623507" lane="-117623507_0" roadsideCapacity="29" length="5"/>
    <parkingArea id="pa-117624636#0" lane="-117624636#0_0" roadsideCapacity="16" length="5"/>
    <parkingArea id="pa-117624636#1" lane="-117624636#1_0" roadsideCapacity="9" length="5"/>
    <parkingArea id="pa-117624637#0" lane="-117624637#0_0" roadsideCapacity="38" length="5"/>
    <parkingArea id="pa-117624637#1" lane="-117624637#1_0" roadsideCapacity="10" length="5"/>
    <parkingArea id="pa-117625588" lane="-117625588_0" roadsideCapacity="18" length="5"/>
    <parkingArea id="pa-117631291#0" lane="-117631291#0_0" roadsideCapacity="15" length="5"/>
    <parkingArea id="pa-117639101#0" lane="-117639101#0_0" roadsideCapacity="29" length="5"/>
    <parkingArea id="pa-117639101#1" lane="-117639101#1_0" roadsideCapacity="6" length="5"/>
    <parkingArea id="pa-117643608" lane="-117643608_0" roadsideCapacity="17" length="5"/>
    <parkingArea id="pa-117643614#0" lane="-117643614#0_0" roadsideCapacity="16" length="5"/>
    <parkingArea id="pa-117643614#1" lane="-117643614#1_0" roadsideCapacity="6" length="5"/>
    <parkingArea id="pa-117643616" lane="-117643616_0" roadsideCapacity="7" length="5"/>
    <parkingArea id="pa-117643622" lane="-117643622_0" roadsideCapacity="2" length="5"/>
    <parkingArea id="pa-117643624" lane="-117643624_0" roadsideCapacity="8" length="5"/>
    <parkingArea id="pa-117649850#0" lane="-117649850#0_0" roadsideCapacity="17" length="5"/>
    <parkingArea id="pa-117649850#1" lane="-117649850#1_0" roadsideCapacity="15" length="5"/>
    <parkingArea id="pa-117649858" lane="-117649858_0" roadsideCapacity="15" length="5"/>
    <parkingArea id="pa-117649862#0" lane="-117649862#0_0" roadsideCapacity="9" length="5"/>
    <parkingArea id="pa-117649862#1" lane="-117649862#1_0" roadsideCapacity="5" length="5"/>
    <parkingArea id="pa-117649862#2" lane="-117649862#2_0" roadsideCapacity="8" length="5"/>
    <parkingArea id="pa-117649868" lane="-117649868_0" roadsideCapacity="14" length="5"/>
    <parkingArea id="pa-117649887" lane="-117649887_0" roadsideCapacity="17" length="5"/>
    <parkingArea id="pa-117654815#0" lane="-117654815#0_0" roadsideCapacity="11" length="5"/>
    <parkingArea id="pa-117654815#3" lane="-117654815#3_0" roadsideCapacity="12" length="5"/>
    <parkingArea id="pa-117654817" lane="-117654817_0" roadsideCapacity="6" length="5"/>
    <parkingArea id="pa-117654819#0" lane="-117654819#0_0" roadsideCapacity="18" length="5"/>
    <parkingArea id="pa-117654819#1" lane="-117654819#1_0" roadsideCapacity="8" length="5"/>
    <parkingArea id="pa-117654826" lane="-117654826_0" roadsideCapacity="48" length="5"/>
    <parkingArea id="pa-117656063#0" lane="-117656063#0_0" roadsideCapacity="3" length="5"/>
    <parkingArea id="pa-117656063#1" lane="-117656063#1_0" roadsideCapacity="19" length="5"/>
    <parkingArea id="pa-117656067#0" lane="-117656067#0_0" roadsideCapacity="18" length="5"/>
    <parkingArea id="pa-117656067#1" lane="-117656067#1_0" roadsideCapacity="7" length="5"/>
    <parkingArea id="pa-118155448" lane="-118155448_0" roadsideCapacity="15" length="5"/>
    <parkingArea id="pa-118155450" lane="-118155450_0" roadsideCapacity="12" length="5"/>
    <parkingArea id="pa-118155452#0" lane="-118155452#0_0" roadsideCapacity="19" length="5"/>
    <parkingArea id="pa-118155452#1" lane="-118155452#1_0" roadsideCapacity="17" length="5"/>
    <parkingArea id="pa-118155453" lane="-118155453_0" roadsideCapacity="16" length="5"/>
    <parkingArea id="pa-118155456#0" lane="-118155456#0_0" roadsideCapacity="28" length="5"/>
    <parkingArea id="pa-118155456#1" lane="-118155456#1_0" roadsideCapacity="65" length="5"/>
    <parkingArea id="pa-118155456#2" lane="-118155456#2_0" roadsideCapacity="18" length="5"/>
    <parkingArea id="pa-118155460" lane="-118155460_0" roadsideCapacity="10" length="5"/>
    <parkingArea id="pa-118864079#0" lane="-118864079#0_0" roadsideCapacity="27" length="5"/>
    <parkingArea id="pa-118864079#1" lane="-118864079#1_0" roadsideCapacity="14" length="5"/>
    <parkingArea id="pa-118864079#2" lane="-118864079#2_0" roadsideCapacity="21" length="5"/>
    <parkingArea id="pa-118864079#3" lane="-118864079#3_0" roadsideCapacity="54" length="5"/>
    <parkingArea id="pa-118864079#4" lane="-118864079#4_0" roadsideCapacity="17" length="5"/>
    <parkingArea id="pa-118864084" lane="-118864084_0" roadsideCapacity="16" length="5"/>
    <parkingArea id="pa-118864085" lane="-118864085_0" roadsideCapacity="17" length="5"/>
    <parkingArea id="pa-118869284#0" lane="-118869284#0_0" roadsideCapacity="17" length="5"/>
    <parkingArea id="pa-118869284#1" lane="-118869284#1_0" roadsideCapacity="17" length="5"/>
    <parkingArea id="pa-118869285" lane="-118869285_0" roadsideCapacity="3" length="5"/>
    <parkingArea id="pa-118869287" lane="-118869287_0" roadsideCapacity="15" length="5"/>
    <parkingArea id="pa-121411748#1" lane="-121411748#1_0" roadsideCapacity="1" length="5"/>
    <parkingArea id="pa-121411749#0" lane="-121411749#0_0" roadsideCapacity="17" length="5"/>
    <parkingArea id="pa-121411752" lane="-121411752_0" roadsideCapacity="3" length="5"/>
    <parkingArea id="pa-121411754" lane="-121411754_0" roadsideCapacity="22" length="5"/>
    <parkingArea id="pa-122388448#0" lane="-122388448#0_0" roadsideCapacity="30" length="5"/>
    <parkingArea id="pa-122388448#1" lane="-122388448#1_0" roadsideCapacity="1" length="5"/>
    <parkingArea id="pa-122398104" lane="-122398104_0" roadsideCapacity="10" length="5"/>
    <parkingArea id="pa-122529094#0" lane="-122529094#0_0" roadsideCapacity="15" length="5"/>
    <parkingArea id="pa-122529094#1" lane="-122529094#1_0" roadsideCapacity="13" length="5"/>
    <parkingArea id="pa-122529094#10" lane="-122529094#10_0" roadsideCapacity="10" length="5"/>
    <parkingArea id="pa-122529094#2" lane="-122529094#2_0" roadsideCapacity="18" length="5"/>
    <parkingArea id="pa-122529094#3" lane="-122529094#3_0" roadsideCapacity="20" length="5"/>
    <parkingArea id="pa-122529094#4" lane="-122529094#4_0" roadsideCapacity="37" length="5"/>
    <parkingArea id="pa-122529094#5" lane="-122529094#5_0" roadsideCapacity="43" length="5"/>
    <parkingArea id="pa-122529094#6" lane="-122529094#6_0" roadsideCapacity="20" length="5"/>
    <parkingArea id="pa-122529094#7" lane="-122529094#7_0" roadsideCapacity="28" length="5"/>
    <parkingArea id="pa-122529094#8" lane="-122529094#8_0" roadsideCapacity="29" length="5"/>
    <parkingArea id="pa-122529094#9" lane="-122529094#9_0" roadsideCapacity="19" length="5"/>
    <parkingArea id="pa-122529096#0" lane="-122529096#0_0" roadsideCapacity="19" length="5"/>
    <parkingArea id="pa-122529096#1" lane="-122529096#1_0" roadsideCapacity="37" length="5"/>
    <parkingArea id="pa-122529096#2" lane="-122529096#2_0" roadsideCapacity="7" length="5"/>
    <parkingArea id="pa-122529096#3" lane="-122529096#3_0" roadsideCapacity="34" length="5"/>
    <parkingArea id="pa-122529096#4" lane="-122529096#4_0" roadsideCapacity="21" length="5"/>
    <parkingArea id="pa-122529096#5" lane="-122529096#5_0" roadsideCapacity="29" length="5"/>
    <parkingArea id="pa-122529096#6" lane="-122529096#6_0" roadsideCapacity="29" length="5"/>
    <parkingArea id="pa-122529096#7" lane="-122529096#7_0" roadsideCapacity="18" length="5"/>
    <parkingArea id="pa-122529096#8" lane="-122529096#8_0" roadsideCapacity="10" length="5"/>
    <parkingArea id="pa-122529098#0" lane="-122529098#0_0" roadsideCapacity="13" length="5"/>
    <parkingArea id="pa-122529098#1" lane="-122529098#1_0" roadsideCapacity="29" length="5"/>
    <parkingArea id="pa-122529099" lane="-122529099_0" roadsideCapacity="37" length="5"/>
    <parkingArea id="pa-122529101" lane="-122529101_0" roadsideCapacity="18" length="5"/>
    <parkingArea id="pa-122529102#0" lane="-122529102#0_0" roadsideCapacity="23" length="5"/>
    <parkingArea id="pa-122529102#1" lane="-122529102#1_0" roadsideCapacity="18" length="5"/>
    <parkingArea id="pa-122529102#2" lane="-122529102#2_0" roadsideCapacity="17" length="5"/>
    <parkingArea id="pa-122529102#3" lane="-122529102#3_0" roadsideCapacity="17" length="5"/>
    <parkingArea id="pa-122529110" lane="-122529110_0" roadsideCapacity="24" length="5"/>
    <parkingArea id="pa-122529114#0" lane="-122529114#0_0" roadsideCapacity="17" length="5"/>
    <parkingArea id="pa-122529114#1" lane="-122529114#1_0" roadsideCapacity="14" length="5"/>
    <parkingArea id="pa-122529114#2" lane="-122529114#2_0" roadsideCapacity="17" length="5"/>
    <parkingArea id="pa-122529992" lane="-122529992_0" roadsideCapacity="51" length="5"/>
    <parkingArea id="pa-123037083" lane="-123037083_0" roadsideCapacity="37" length="5"/>
    <parkingArea id="pa-125351107" lane="-125351107_0" roadsideCapacity="18" length="5"/>
    <parkingArea id="pa-125351109" lane="-125351109_0" roadsideCapacity="20" length="5"/>
    <parkingArea id="pa-125351110" lane="-125351110_0" roadsideCapacity="16" length="5"/>
    <parkingArea id="pa-125351165#0" lane="-125351165#0_0" roadsideCapacity="16" length="5"/>
    <parkingArea id="pa-125351165#1" lane="-125351165#1_0" roadsideCapacity="17" length="5"/>
    <parkingArea id="pa-125589533" lane="-125589533_0" roadsideCapacity="2" length="5"/>
    <parkingArea id="pa-126140573#3" lane="-126140573#3_0" roadsideCapacity="1" length="5"/>
    <parkingArea id="pa-126449197" lane="-126449197_0" roadsideCapacity="2" length="5"/>
    <parkingArea id="pa-126449297#0" lane="-126449297#0_0" roadsideCapacity="11" length="5"/>
    <parkingArea id="pa-126449297#1" lane="-126449297#1_0" roadsideCapacity="20" length="5"/>
    <parkingArea id="pa-126709272#0" lane="-126709272#0_0" roadsideCapacity="12" length="5"/>
    <parkingArea id="pa-126709272#1" lane="-126709272#1_0" roadsideCapacity="4" length="5"/>
    <parkingArea id="pa-127207622" lane="-127207622_0" roadsideCapacity="11" length="5"/>
    <parkingArea id="pa-128489934" lane="-128489934_0" roadsideCapacity="9" length="5"/>
    <parkingArea id="pa-128504972" lane="-128504972_0" roadsideCapacity="147" length="5"/>
    <parkingArea id="pa-132047178" lane="-132047178_0" roadsideCapacity="7" length="5"/>
    <parkingArea id="pa-132047180" lane="-132047180_0" roadsideCapacity="2" length="5"/>
    <parkingArea id="pa-136721664" lane="-136721664_0" roadsideCapacity="12" length="5"/>
    <parkingArea id="pa-136721666" lane="-136721666_0" roadsideCapacity="2" length="5"/>
    <parkingArea id="pa-136721667" lane="-136721667_0" roadsideCapacity="1" length="5"/>
    <parkingArea id="pa-136721671" lane="-136721671_0" roadsideCapacity="60" length="5"/>
    <parkingArea id="pa-136721672" lane="-136721672_0" roadsideCapacity="1" length="5"/>
    <parkingArea id="pa-136721675" lane="-136721675_0" roadsideCapacity="12" length="5"/>
    <parkingArea id="pa-136721677#1" lane="-136721677#1_0" roadsideCapacity="19" length="5"/>
    <parkingArea id="pa-136721679#0" lane="-136721679#0_0" roadsideCapacity="9" length="5"/>
    <parkingArea id="pa-136721679#1" lane="-136721679#1_0" roadsideCapacity="9" length="5"/>
    <parkingArea id="pa-136721681" lane="-136721681_0" roadsideCapacity="56" length="5"/>
    <parkingArea id="pa-136721683" lane="-136721683_0" roadsideCapacity="3" length="5"/>
    <parkingArea id="pa-136864084#0" lane="-136864084#0_0" roadsideCapacity="42" length="5"/>
    <parkingArea id="pa-136864084#1" lane="-136864084#1_0" roadsideCapacity="5" length="5"/>
    <parkingArea id="pa-136864084#2" lane="-136864084#2_0" roadsideCapacity="21" length="5"/>
    <parkingArea id="pa-136864086" lane="-136864086_0" roadsideCapacity="9" length="5"/>
    <parkingArea id="pa-136867909" lane="-136867909_0" roadsideCapacity="16" length="5"/>
    <parkingArea id="pa-137388192#0" lane="-137388192#0_0" roadsideCapacity="14" length="5"/>
    <parkingArea id="pa-137388192#1" lane="-137388192#1_0" roadsideCapacity="20" length="5"/>
    <parkingArea id="pa-137388193" lane="-137388193_0" roadsideCapacity="11" length="5"/>
    <parkingArea id="pa-137996243" lane="-137996243_0" roadsideCapacity="6" length="5"/>
    <parkingArea id="pa-137996244#0" lane="-137996244#0_0" roadsideCapacity="49" length="5"/>
    <parkingArea id="pa-137996244#2" lane="-137996244#2_0" roadsideCapacity="49" length="5"/>
    <parkingArea id="pa-137996247" lane="-137996247_0" roadsideCapacity="21" length="5"/>
    <parkingArea id="pa-138037516" lane="-138037516_0" roadsideCapacity="18" length="5"/>
    <parkingArea id="pa-138037521" lane="-138037521_0" roadsideCapacity="27" length="5"/>
    <parkingArea id="pa-138350778#0" lane="-138350778#0_0" roadsideCapacity="22" length="5"/>
    <parkingArea id="pa-138350780#0" lane="-138350780#0_0" roadsideCapacity="9" length="5"/>
    <parkingArea id="pa-138350780#1" lane="-138350780#1_0" roadsideCapacity="14" length="5"/>
    <parkingArea id="pa-138350780#2" lane="-138350780#2_0" roadsideCapacity="19" length="5"/>
    <parkingArea id="pa-138914235#0" lane="-138914235#0_0" roadsideCapacity="19" length="5"/>
    <parkingArea id="pa-142497100#0" lane="-142497100#0_0" roadsideCapacity="33" length="5"/>
    <parkingArea id="pa-14433921#1" lane="-14433921#1_0" roadsideCapacity="29" length="5"/>
    <parkingArea id="pa-14434303" lane="-14434303_0" roadsideCapacity="17" length="5"/>
    <parkingArea id="pa-14571549" lane="-14571549_0" roadsideCapacity="3" length="5"/>
    <parkingArea id="pa-14571550#0" lane="-14571550#0_0" roadsideCapacity="6" length="5"/>
    <parkingArea id="pa-14571550#1" lane="-14571550#1_0" roadsideCapacity="2" length="5"/>
    <parkingArea id="pa-14573382#0" lane="-14573382#0_0" roadsideCapacity="17" length="5"/>
    <parkingArea id="pa-14573382#1" lane="-14573382#1_0" roadsideCapacity="5" length="5"/>
    <parkingArea id="pa-14573382#2" lane="-14573382#2_0" roadsideCapacity="13" length="5"/>
    <parkingArea id="pa-14573382#3" lane="-14573382#3_0" roadsideCapacity="34" length="5"/>
    <parkingArea id="pa-147136167" lane="-147136167_0" roadsideCapacity="52" length="5"/>
    <parkingArea id="pa-147141239" lane="-147141239_0" roadsideCapacity="53" length="5"/>
    <parkingArea id="pa-14994763" lane="-14994763_0" roadsideCapacity="13" length="5"/>
    <parkingArea id="pa-15242125" lane="-15242125_0" roadsideCapacity="7" length="5"/>
    <parkingArea id="pa-15242126" lane="-15242126_0" roadsideCapacity="13" length="5"/>
    <parkingArea id="pa-15242127#1" lane="-15242127#1_0" roadsideCapacity="8" length="5"/>
    <parkingArea id="pa-15242128#0" lane="-15242128#0_0" roadsideCapacity="3" length="5"/>
    <parkingArea id="pa-15242128#1" lane="-15242128#1_0" roadsideCapacity="1" length="5"/>
    <parkingArea id="pa-15242129#0" lane="-15242129#0_0" roadsideCapacity="3" length="5"/>
    <parkingArea id="pa-15242129#1" lane="-15242129#1_0" roadsideCapacity="3" length="5"/>
    <parkingArea id="pa-153716505#0" lane="-153716505#0_0" roadsideCapacity="6" length="5"/>
    <parkingArea id="pa-153716505#1" lane="-153716505#1_0" roadsideCapacity="5" length="5"/>
    <parkingArea id="pa-154150880#0" lane="-154150880#0_0" roadsideCapacity="88" length="5"/>
    <parkingArea id="pa-159761036#1" lane="-159761036#1_0" roadsideCapacity="4" length="5"/>
    <parkingArea id="pa-161176858" lane="-161176858_0" roadsideCapacity="13" length="5"/>
    <parkingArea id="pa-162352616" lane="-162352616_0" roadsideCapacity="16" length="5"/>
    <parkingArea id="pa-16345605#0" lane="-16345605#0_0" roadsideCapacity="18" length="5"/>
    <parkingArea id="pa-16345605#1" lane="-16345605#1_0" roadsideCapacity="7" length="5"/>
    <parkingArea id="pa-16345612#0" lane="-16345612#0_0" roadsideCapacity="35" length="5"/>
    <parkingArea id="pa-16626712" lane="-16626712_0" roadsideCapacity="1" length="5"/>
    <parkingArea id="pa-16627594" lane="-16627594_0" roadsideCapacity="115" length="5"/>
    <parkingArea id="pa-16875468" lane="-16875468_0" roadsideCapacity="16" length="5"/>
    <parkingArea id="pa-169313833#0" lane="-169313833#0_0" roadsideCapacity="5" length="5"/>
    <parkingArea id="pa-169313833#1" lane="-169313833#1_0" roadsideCapacity="10" length="5"/>
    <parkingArea id="pa-169313833#2" lane="-169313833#2_0" roadsideCapacity="17" length="5"/>
    <parkingArea id="pa-169313833#3" lane="-169313833#3_0" roadsideCapacity="17" length="5"/>
    <parkingArea id="pa-17264716" lane="-17264716_0" roadsideCapacity="18" length="5"/>
    <parkingArea id="pa-17265677" lane="-17265677_0" roadsideCapacity="1" length="5"/>
    <parkingArea id="pa-177387877" lane="-177387877_0" roadsideCapacity="59" length="5"/>
    <parkingArea id="pa-183247519#0" lane="-183247519#0_0" roadsideCapacity="10" length="5"/>
    <parkingArea id="pa-18383726" lane="-18383726_0" roadsideCapacity="28" length="5"/>
    <parkingArea id="pa-188653321" lane="-188653321_0" roadsideCapacity="25" length="5"/>
    <parkingArea id="pa-188890214" lane="-188890214_0" roadsideCapacity="16" length="5"/>
    <parkingArea id="pa-191270666" lane="-191270666_0" roadsideCapacity="14" length="5"/>
    <parkingArea id="pa-191374712#0" lane="-191374712#0_0" roadsideCapacity="18" length="5"/>
    <parkingArea id="pa-191374714#0" lane="-191374714#0_0" roadsideCapacity="8" length="5"/>
    <parkingArea id="pa-191374715#0" lane="-191374715#0_0" roadsideCapacity="21" length="5"/>
    <parkingArea id="pa-191374715#1" lane="-191374715#1_0" roadsideCapacity="12" length="5"/>
    <parkingArea id="pa-193640980" lane="-193640980_0" roadsideCapacity="30" length="5"/>
    <parkingArea id="pa-19850958#0" lane="-19850958#0_0" roadsideCapacity="34" length="5"/>
    <parkingArea id="pa-20179292#0" lane="-20179292#0_0" roadsideCapacity="12" length="5"/>
    <parkingArea id="pa-20179292#1" lane="-20179292#1_0" roadsideCapacity="18" length="5"/>
    <parkingArea id="pa-203300097" lane="-203300097_0" roadsideCapacity="16" length="5"/>
    <parkingArea id="pa-205468106" lane="-205468106_0" roadsideCapacity="23" length="5"/>
    <parkingArea id="pa-206551701" lane="-206551701_0" roadsideCapacity="103" length="5"/>
    <parkingArea id="pa-208548182" lane="-208548182_0" roadsideCapacity="72" length="5"/>
    <parkingArea id="pa-208548183" lane="-208548183_0" roadsideCapacity="42" length="5"/>
    <parkingArea id="pa-208548184#0" lane="-208548184#0_0" roadsideCapacity="20" length="5"/>
    <parkingArea id="pa-208548185" lane="-208548185_0" roadsideCapacity="36" length="5"/>
    <parkingArea id="pa-208585109#0" lane="-208585109#0_0" roadsideCapacity="37" length="5"/>
    <parkingArea id="pa-210457775#0" lane="-210457775#0_0" roadsideCapacity="21" length="5"/>
    <parkingArea id="pa-210457775#1" lane="-210457775#1_0" roadsideCapacity="9" length="5"/>
    <parkingArea id="pa-21052315#0" lane="-21052315#0_0" roadsideCapacity="2" length="5"/>
    <parkingArea id="pa-211120148" lane="-211120148_0" roadsideCapacity="49" length="5"/>
    <parkingArea id="pa-211122001" lane="-211122001_0" roadsideCapacity="55" length="5"/>
    <parkingArea id="pa-211129670#0" lane="-211129670#0_0" roadsideCapacity="48" length="5"/>
    <parkingArea id="pa-211199290#0" lane="-211199290#0_0" roadsideCapacity="35" length="5"/>
    <parkingArea id="pa-211199290#1" lane="-211199290#1_0" roadsideCapacity="1" length="5"/>
    <parkingArea id="pa-211199292" lane="-211199292_0" roadsideCapacity="11" length="5"/>
    <parkingArea id="pa-211199295" lane="-211199295_0" roadsideCapacity="23" length="5"/>
    <parkingArea id="pa-211208696#0" lane="-211208696#0_0" roadsideCapacity="46" length="5"/>
    <parkingArea id="pa-211695402" lane="-211695402_0" roadsideCapacity="78" length="5"/>
    <parkingArea id="pa-212694590" lane="-212694590_0" roadsideCapacity="27" length="5"/>
    <parkingArea id="pa-212694591" lane="-212694591_0" roadsideCapacity="17" length="5"/>
    <parkingArea id="pa-217695968#0" lane="-217695968#0_0" roadsideCapacity="54" length="5"/>
    <parkingArea id="pa-217695970#0" lane="-217695970#0_0" roadsideCapacity="29" length="5"/>
    <parkingArea id="pa-217696286#0" lane="-217696286#0_0" roadsideCapacity="42" length="5"/>
    <parkingArea id="pa-217696286#1" lane="-217696286#1_0" roadsideCapacity="12" length="5"/>
    <parkingArea id="pa-217696288#0" lane="-217696288#0_0" roadsideCapacity="31" length="5"/>
    <parkingArea id="pa-217696288#1" lane="-217696288#1_0" roadsideCapacity="13" length="5"/>
    <parkingArea id="pa-217696289" lane="-217696289_0" roadsideCapacity="19" length="5"/>
    <parkingArea id="pa-217696353" lane="-217696353_0" roadsideCapacity="41" length="5"/>
    <parkingArea id="pa-217763498#0" lane="-217763498#0_0" roadsideCapacity="48" length="5"/>
    <parkingArea id="pa-217763498#1" lane="-217763498#1_0" roadsideCapacity="49" length="5"/>
    <parkingArea id="pa-217763498#2" lane="-217763498#2_0" roadsideCapacity="24" length="5"/>
    <parkingArea id="pa-222307221#0" lane="-222307221#0_0" roadsideCapacity="74" length="5"/>
    <parkingArea id="pa-222307221#1" lane="-222307221#1_0" roadsideCapacity="26" length="5"/>
    <parkingArea id="pa-224710091" lane="-224710091_0" roadsideCapacity="32" length="5"/>
    <parkingArea id="pa-224710092" lane="-224710092_0" roadsideCapacity="71" length="5"/>
    <parkingArea id="pa-224710093#0" lane="-224710093#0_0" roadsideCapacity="34" length="5"/>
    <parkingArea id="pa-224710093#1" lane="-224710093#1_0" roadsideCapacity="17" length="5"/>
    <parkingArea id="pa-22604695#1" lane="-22604695#1_0" roadsideCapacity="6" length="5"/>
    <parkingArea id="pa-22604699#0" lane="-22604699#0_0" roadsideCapacity="11" length="5"/>
    <parkingArea id="pa-22604699#1" lane="-22604699#1_0" roadsideCapacity="41" length="5"/>
    <parkingArea id="pa-22762570" lane="-22762570_0" roadsideCapacity="43" length="5"/>
    <parkingArea id="pa-22914198" lane="-22914198_0" roadsideCapacity="16" length="5"/>
    <parkingArea id="pa-22982190" lane="-22982190_0" roadsideCapacity="1" length="5"/>
    <parkingArea id="pa-22982192#0" lane="-22982192#0_0" roadsideCapacity="53" length="5"/>
    <parkingArea id="pa-22982192#1" lane="-22982192#1_0" roadsideCapacity="2" length="5"/>
    <parkingArea id="pa-22982192#2" lane="-22982192#2_0" roadsideCapacity="18" length="5"/>
    <parkingArea id="pa-232123272#0" lane="-232123272#0_0" roadsideCapacity="2" length="5"/>
    <parkingArea id="pa-232177528" lane="-232177528_0" roadsideCapacity="15" length="5"/>
    <parkingArea id="pa-232184388" lane="-232184388_0" roadsideCapacity="7" length="5"/>
    <parkingArea id="pa-23309338" lane="-23309338_0" roadsideCapacity="39" length="5"/>
    <parkingArea id="pa-233171092" lane="-233171092_0" roadsideCapacity="2" length="5"/>
    <parkingArea id="pa-233171093" lane="-233171093_0" roadsideCapacity="2" length="5"/>
    <parkingArea id="pa-233171094#0" lane="-233171094#0_0" roadsideCapacity="11" length="5"/>
    <parkingArea id="pa-233171094#1" lane="-233171094#1_0" roadsideCapacity="21" length="5"/>
    <parkingArea id="pa-233171094#2" lane="-233171094#2_0" roadsideCapacity="21" length="5"/>
    <parkingArea id="pa-233171094#3" lane="-233171094#3_0" roadsideCapacity="16" length="5"/>
    <parkingArea id="pa-233220919" lane="-233220919_0" roadsideCapacity="68" length="5"/>
    <parkingArea id="pa-233865795" lane="-233865795_0" roadsideCapacity="30" length="5"/>
    <parkingArea id="pa-234088653#0" lane="-234088653#0_0" roadsideCapacity="73" length="5"/>
    <parkingArea id="pa-234088653#1" lane="-234088653#1_0" roadsideCapacity="13" length="5"/>
    <parkingArea id="pa-234088653#2" lane="-234088653#2_0" roadsideCapacity="11" length="5"/>