<?xml version="1.0" encoding="UTF-8"?>

<!-- generated on 2024-07-15 12:27:59 by Eclipse SUMO netconvert Version 1.20.0
<configuration xmlns:xsi="http://www.w3.org/2001/XMLSchema-instance" xsi:noNamespaceSchemaLocation="http://sumo.dlr.de/xsd/netconvertConfiguration.xsd">

    <input>
        <sumo-net-file value="area1_connected.net.xml"/>
    </input>

    <output>
        <plain-output-prefix value="plain"/>
        <output.street-names value="true"/>
    </output>

    <processing>
        <geometry.min-radius.fix.railways value="false"/>
        <geometry.max-grade.fix value="false"/>
        <offset.disable-normalization value="true"/>
        <lefthand value="0"/>
    </processing>

    <junctions>
        <no-turnarounds value="true"/>
        <junctions.corner-detail value="5"/>
        <junctions.limit-turn-speed value="5.50"/>
        <rectangular-lane-cut value="0"/>
    </junctions>

    <pedestrian>
        <walkingareas value="0"/>
    </pedestrian>

</configuration>
-->

<tlLogics version="1.20" xmlns:xsi="http://www.w3.org/2001/XMLSchema-instance" xsi:noNamespaceSchemaLocation="http://sumo.dlr.de/xsd/tllogic_file.xsd">
    <tlLogic id="1329534504" type="actuated" programID="0" offset="0">
        <phase duration="38" state="rrrrGGggrrrrGGgg" minDur="5" maxDur="50"/>
        <phase duration="3"  state="rrrryyggrrrryygg"/>
        <phase duration="6"  state="rrrrrrGGrrrrrrGG" minDur="5" maxDur="50"/>
        <phase duration="3"  state="rrrrrryyrrrrrryy"/>
        <phase duration="37" state="GGggrrrrGGggrrrr" minDur="5" maxDur="50"/>
        <phase duration="3"  state="yyyyrrrryyyyrrrr"/>
        <param key="jam-threshold" value="30"/>
    </tlLogic>
    <tlLogic id="GS_226008" type="actuated" programID="0" offset="0">
        <phase duration="42" state="GgGrrr" minDur="5" maxDur="50"/>
        <phase duration="3"  state="yyyrrr"/>
        <phase duration="42" state="rrGGGG" minDur="5" maxDur="50"/>
        <phase duration="3"  state="rryyyy"/>
        <param key="jam-threshold" value="30"/>
    </tlLogic>
    <tlLogic id="GS_24556185" type="actuated" programID="0" offset="0">
        <phase duration="42" state="GGrrr" minDur="5" maxDur="50"/>
        <phase duration="3"  state="yyrrr"/>
        <phase duration="42" state="rrGGG" minDur="5" maxDur="50"/>
        <phase duration="3"  state="rryyy"/>
        <param key="jam-threshold" value="30"/>
    </tlLogic>
    <tlLogic id="GS_24556187" type="actuated" programID="0" offset="0">
        <phase duration="42" state="GGGrr" minDur="5" maxDur="50"/>
        <phase duration="3"  state="yyyrr"/>
        <phase duration="42" state="rrrGG" minDur="5" maxDur="50"/>
        <phase duration="3"  state="rrryy"/>
        <param key="jam-threshold" value="30"/>
    </tlLogic>
    <tlLogic id="GS_24982821" type="actuated" programID="0" offset="0">
        <phase duration="27" state="rrrrGG" minDur="5" maxDur="50"/>
        <phase duration="3"  state="rrrryy"/>
        <phase duration="27" state="GGGrrr" minDur="5" maxDur="50"/>
        <phase duration="3"  state="yyyrrr"/>
        <phase duration="27" state="rrrGrr" minDur="5" maxDur="50"/>
        <phase duration="3"  state="rrryrr"/>
        <param key="jam-threshold" value="30"/>
    </tlLogic>
    <tlLogic id="GS_25495303" type="actuated" programID="0" offset="0">
        <phase duration="38" state="rrrGggGGg" minDur="5" maxDur="50"/>
        <phase duration="3"  state="rrryggyyy"/>
        <phase duration="6"  state="rrrGGGrrr" minDur="5" maxDur="50"/>
        <phase duration="3"  state="rrryyyrrr"/>
        <phase duration="37" state="GGGrrrrrr" minDur="5" maxDur="50"/>
        <phase duration="3"  state="yyyrrrrrr"/>
        <param key="jam-threshold" value="30"/>
    </tlLogic>
    <tlLogic id="GS_26337464" type="actuated" programID="0" offset="0">
        <phase duration="41" state="GGGrr" minDur="7" maxDur="50"/>
        <phase duration="4"  state="yyyrr"/>
        <phase duration="41" state="rrrGG" minDur="7" maxDur="50"/>
        <phase duration="4"  state="rrryy"/>
        <param key="jam-threshold" value="30"/>
    </tlLogic>
    <tlLogic id="GS_280955781" type="actuated" programID="0" offset="0">
        <phase duration="41" state="GGGrr" minDur="7" maxDur="50"/>
        <phase duration="4"  state="yyyrr"/>
        <phase duration="41" state="rrrGG" minDur="5" maxDur="50"/>
        <phase duration="4"  state="rrryy"/>
        <param key="jam-threshold" value="30"/>
    </tlLogic>
    <tlLogic id="GS_34770808" type="actuated" programID="0" offset="0">
        <phase duration="42" state="GgGrrr" minDur="5" maxDur="50"/>
        <phase duration="3"  state="yyyrrr"/>
        <phase duration="42" state="rrGGGG" minDur="5" maxDur="50"/>
        <phase duration="3"  state="rryyyy"/>
        <param key="jam-threshold" value="30"/>
    </tlLogic>
    <tlLogic id="GS_60707546" type="actuated" programID="0" offset="0">
        <phase duration="42" state="GGrrrr" minDur="5" maxDur="50"/>
        <phase duration="3"  state="yyrrrr"/>
        <phase duration="42" state="rrGGGG" minDur="5" maxDur="50"/>
        <phase duration="3"  state="rryyyy"/>
        <param key="jam-threshold" value="30"/>
    </tlLogic>
    <tlLogic id="GS_87739796" type="actuated" programID="0" offset="0">
        <phase duration="42" state="GgGrrr" minDur="5" maxDur="50"/>
        <phase duration="3"  state="yyyrrr"/>
        <phase duration="42" state="rrGGGG" minDur="5" maxDur="50"/>
        <phase duration="3"  state="rryyyy"/>
        <param key="jam-threshold" value="30"/>
    </tlLogic>
    <tlLogic id="GS_91221899" type="actuated" programID="0" offset="0">
        <phase duration="42" state="GggrrrGGg" minDur="5" maxDur="50"/>
        <phase duration="3"  state="yyyrrryyy"/>
        <phase duration="42" state="rrrGGgGrr" minDur="5" maxDur="50"/>
        <phase duration="3"  state="rrryyyyrr"/>
        <param key="jam-threshold" value="30"/>
    </tlLogic>
    <tlLogic id="GS_cluster_1325001930_259755298_259755299" type="actuated" programID="0" offset="0">
        <phase duration="42" state="GGggrrrrGG" minDur="5" maxDur="50"/>
        <phase duration="3"  state="yyyyrrrryy"/>
        <phase duration="42" state="rrrrGGGgGr" minDur="5" maxDur="50"/>
        <phase duration="3"  state="rrrryyyyyr"/>
        <param key="jam-threshold" value="30"/>
    </tlLogic>
    <tlLogic id="GS_cluster_1325001947_259757720_259758931" type="actuated" programID="0" offset="0">
        <phase duration="38" state="GggrrrGGg" minDur="5" maxDur="50"/>
        <phase duration="3"  state="yggrrryyy"/>
        <phase duration="6"  state="GGGrrrrrr" minDur="5" maxDur="50"/>
        <phase duration="3"  state="yyyrrrrrr"/>
        <phase duration="37" state="rrrGGgGrr" minDur="5" maxDur="50"/>
        <phase duration="3"  state="rrryyyyrr"/>
        <param key="jam-threshold" value="30"/>
    </tlLogic>
    <tlLogic id="GS_cluster_1336069771_286760285" type="actuated" programID="0" offset="0">
        <phase duration="38" state="GGGrrrGgg" minDur="5" maxDur="50"/>
        <phase duration="3"  state="yyyrrrygg"/>
        <phase duration="6"  state="rrrrrrGGG" minDur="5" maxDur="50"/>
        <phase duration="3"  state="rrrrrryyy"/>
        <phase duration="37" state="rrrGGGrrr" minDur="5" maxDur="50"/>
        <phase duration="3"  state="rrryyyrrr"/>
        <param key="jam-threshold" value="30"/>
    </tlLogic>
    <tlLogic id="GS_cluster_1359417232_259755292_288986961_288986966" type="actuated" programID="0" offset="0">
        <phase duration="33" state="rrrrGGGggrrrrGGgg" minDur="5" maxDur="50"/>
        <phase duration="3"  state="rrrryyyggrrrryygg"/>
        <phase duration="6"  state="rrrrrrrGGrrrrrrGG" minDur="5" maxDur="50"/>
        <phase duration="3"  state="rrrrrrryyrrrrrryy"/>
        <phase duration="33" state="GGggrrrrrGGggrrrr" minDur="5" maxDur="50"/>
        <phase duration="3"  state="yyggrrrrryyggrrrr"/>
        <phase duration="6"  state="rrGGrrrrrrrGGrrrr" minDur="5" maxDur="50"/>
        <phase duration="3"  state="rryyrrrrrrryyrrrr"/>
        <param key="jam-threshold" value="30"/>
    </tlLogic>
    <tlLogic id="GS_cluster_1359417236_259755295" type="actuated" programID="0" offset="0">
        <phase duration="38" state="GGggrrrrGGggrrrr" minDur="5" maxDur="50"/>
        <phase duration="3"  state="yyggrrrryyggrrrr"/>
        <phase duration="6"  state="rrGGrrrrrrGGrrrr" minDur="5" maxDur="50"/>
        <phase duration="3"  state="rryyrrrrrryyrrrr"/>
        <phase duration="37" state="rrrrGGggrrrrGGgg" minDur="5" maxDur="50"/>
        <phase duration="3"  state="rrrryyyyrrrryyyy"/>
        <param key="jam-threshold" value="30"/>
    </tlLogic>
    <tlLogic id="GS_cluster_1368959681_286760279_286760280" type="actuated" programID="0" offset="0">
        <phase duration="38" state="GggrrrrGGGg" minDur="5" maxDur="50"/>
        <phase duration="3"  state="yggrrrryyyy"/>
        <phase duration="6"  state="GGGrrrrrrrr" minDur="5" maxDur="50"/>
        <phase duration="3"  state="yyyrrrrrrrr"/>
        <phase duration="37" state="rrrGGGgGrrr" minDur="5" maxDur="50"/>
        <phase duration="3"  state="rrryyyyyrrr"/>
        <param key="jam-threshold" value="30"/>
    </tlLogic>
    <tlLogic id="GS_cluster_1401707593_29737586_29737587" type="actuated" programID="0" offset="0">
        <phase duration="36" state="GGggrrrrGGG" minDur="7" maxDur="50"/>
        <phase duration="4"  state="yyggrrrryyy"/>
        <phase duration="6"  state="GGGGrrrrrrr" minDur="7" maxDur="50"/>
        <phase duration="4"  state="yyyyrrrrrrr"/>
        <phase duration="36" state="rrrrGGGGrrr" minDur="5" maxDur="50"/>
        <phase duration="4"  state="rrrryyyyrrr"/>
        <param key="jam-threshold" value="30"/>
    </tlLogic>
    <tlLogic id="GS_cluster_1401708059_25238079_6646078689_6646078690" type="actuated" programID="0" offset="0">
        <phase duration="29" state="rrrrGGGggrrrrGGGgg" minDur="5" maxDur="50"/>
        <phase duration="5"  state="rrrryyyggrrrryyygg"/>
        <phase duration="6"  state="rrrrrrrGGrrrrrrrGG" minDur="5" maxDur="50"/>
        <phase duration="5"  state="rrrrrrryyrrrrrrryy"/>
        <phase duration="29" state="GGrrrrrrrGGggrrrrr" minDur="10" maxDur="50"/>
        <phase duration="5"  state="yyrrrrrrryyggrrrrr"/>
        <phase duration="6"  state="rrGGrrrrrrrGGrrrrr" minDur="10" maxDur="50"/>
        <phase duration="5"  state="rryyrrrrrrryyrrrrr"/>
        <param key="jam-threshold" value="30"/>
    </tlLogic>
    <tlLogic id="GS_cluster_1401708084_25290556_25290563" type="actuated" programID="0" offset="0">
        <phase duration="36" state="GGggrrrGGGg" minDur="7" maxDur="50"/>
        <phase duration="4"  state="yyggrrryyyy"/>
        <phase duration="6"  state="GGGGrrrrrrr" minDur="7" maxDur="50"/>
        <phase duration="4"  state="yyyyrrrrrrr"/>
        <phase duration="36" state="rrrrGGgGrrr" minDur="5" maxDur="50"/>
        <phase duration="4"  state="rrrryyyyrrr"/>
        <param key="jam-threshold" value="30"/>
    </tlLogic>
    <tlLogic id="GS_cluster_141443890_24982818_311691375_311691377" type="actuated" programID="0" offset="0">
        <phase duration="57" state="GGgrrrrGGGG" minDur="5" maxDur="75"/>
        <phase duration="3"  state="yygrrrryyyy"/>
        <phase duration="6"  state="GGGrrrrrrrr" minDur="5" maxDur="50"/>
        <phase duration="3"  state="yyyrrrrrrrr"/>
        <phase duration="37" state="rrrGGGgGrrr" minDur="5" maxDur="50"/>
        <phase duration="3"  state="rrryyyyyrrr"/>
        <param key="jam-threshold" value="30"/>
    </tlLogic>
    <tlLogic id="GS_cluster_1460980074_322078004" type="actuated" programID="0" offset="0">
        <phase duration="38" state="GggrrrGGg" minDur="5" maxDur="50"/>
        <phase duration="3"  state="yggrrryyy"/>
        <phase duration="6"  state="GGGrrrrrr" minDur="5" maxDur="50"/>
        <phase duration="3"  state="yyyrrrrrr"/>
        <phase duration="37" state="rrrGGgGrr" minDur="5" maxDur="50"/>
        <phase duration="3"  state="rrryyyyrr"/>
        <param key="jam-threshold" value="30"/>
    </tlLogic>
    <tlLogic id="GS_cluster_148083349_257098801_257098805_26400201" type="actuated" programID="0" offset="0">
        <phase duration="38" state="rrrGGGgg" minDur="5" maxDur="50"/>
        <phase duration="3"  state="rrryyygg"/>
        <phase duration="6"  state="rrrrrGGG" minDur="5" maxDur="50"/>
        <phase duration="3"  state="rrrrryyy"/>
        <phase duration="37" state="GGgGrrrr" minDur="5" maxDur="50"/>
        <phase duration="3"  state="yyyyrrrr"/>
        <param key="jam-threshold" value="30"/>
    </tlLogic>
    <tlLogic id="GS_cluster_1499965316_7950412210" type="actuated" programID="0" offset="0">
        <phase duration="33" state="GggrrrGGg" minDur="13" maxDur="50"/>
        <phase duration="6"  state="yggrrryyy"/>
        <phase duration="6"  state="GGGrrrrrr" minDur="13" maxDur="50"/>
        <phase duration="6"  state="yyyrrrrrr"/>
        <phase duration="33" state="rrrGGgGrr" minDur="5" maxDur="50"/>
        <phase duration="6"  state="rrryyyyrr"/>
        <param key="jam-threshold" value="30"/>
    </tlLogic>
    <tlLogic id="GS_cluster_1522930708_259755289_277838314_277838315" type="actuated" programID="0" offset="0">
        <phase duration="38" state="GggrrrGGg" minDur="5" maxDur="50"/>
        <phase duration="3"  state="yggrrryyy"/>
        <phase duration="6"  state="GGGrrrrrr" minDur="5" maxDur="50"/>
        <phase duration="3"  state="yyyrrrrrr"/>
        <phase duration="37" state="rrrGGgGrr" minDur="5" maxDur="50"/>
        <phase duration="3"  state="rrryyyyrr"/>
        <param key="jam-threshold" value="30"/>
    </tlLogic>
    <tlLogic id="GS_cluster_180771701_2320597085_54001332" type="actuated" programID="0" offset="0">
        <phase duration="36" state="rrrrrGGGGGGg" minDur="7" maxDur="50"/>
        <phase duration="4"  state="rrrrryyyyyyg"/>
        <phase duration="6"  state="rrrrrrrrGGGG" minDur="7" maxDur="50"/>
        <phase duration="4"  state="rrrrrrrryyyy"/>
        <phase duration="36" state="GGGGgGrrrrrr" minDur="5" maxDur="50"/>
        <phase duration="4"  state="yyyyyyrrrrrr"/>
        <param key="jam-threshold" value="30"/>
    </tlLogic>
    <tlLogic id="GS_cluster_24982794_25095364_288691807_288691810" type="actuated" programID="0" offset="0">
        <phase duration="33" state="rrrrGGGggrrrrGGGGgg" minDur="5" maxDur="50"/>
        <phase duration="3"  state="rrrryyyggrrrryyyygg"/>
        <phase duration="6"  state="rrrrrrrGGrrrrrrrrGG" minDur="5" maxDur="50"/>
        <phase duration="3"  state="rrrrrrryyrrrrrrrryy"/>
        <phase duration="33" state="GGggrrrrrGGggrrrrrr" minDur="5" maxDur="50"/>
        <phase duration="3"  state="yyggrrrrryyggrrrrrr"/>
        <phase duration="6"  state="rrGGrrrrrrrGGrrrrrr" minDur="5" maxDur="50"/>
        <phase duration="3"  state="rryyrrrrrrryyrrrrrr"/>
        <param key="jam-threshold" value="30"/>
    </tlLogic>
    <tlLogic id="GS_cluster_24982798_288691804" type="actuated" programID="0" offset="0">
        <phase duration="42" state="GGggrrrGGg" minDur="5" maxDur="50"/>
        <phase duration="3"  state="yyyyrrryyy"/>
        <phase duration="42" state="rrrrGGgGrr" minDur="5" maxDur="50"/>
        <phase duration="3"  state="rrrryyyyrr"/>
        <param key="jam-threshold" value="30"/>
    </tlLogic>
    <tlLogic id="GS_cluster_25005819_25095365_6261282328" type="actuated" programID="0" offset="0">
        <phase duration="38" state="GGggrrrrGGGGg" minDur="5" maxDur="50"/>
        <phase duration="3"  state="yyggrrrryyyyy"/>
        <phase duration="6"  state="GGGGrrrrrrrrr" minDur="5" maxDur="50"/>
        <phase duration="3"  state="yyyyrrrrrrrrr"/>
        <phase duration="37" state="rrrrGGGgGrrrr" minDur="5" maxDur="50"/>
        <phase duration="3"  state="rrrryyyyyrrrr"/>
        <param key="jam-threshold" value="30"/>
    </tlLogic>
    <tlLogic id="GS_cluster_25216698_27540795_9284077087" type="actuated" programID="0" offset="0">
        <phase duration="42" state="GggrrrrGGg" minDur="5" maxDur="50"/>
        <phase duration="3"  state="yyyrrrryyy"/>
        <phase duration="42" state="rrrGGGgGrr" minDur="5" maxDur="50"/>
        <phase duration="3"  state="rrryyyyyrr"/>
        <param key="jam-threshold" value="30"/>
    </tlLogic>
    <tlLogic id="GS_cluster_25253811_25253816_269666529" type="actuated" programID="0" offset="0">
        <phase duration="33" state="GGGggrrrrGGGggrrrr" minDur="5" maxDur="50"/>
        <phase duration="3"  state="yyyggrrrryyyggrrrr"/>
        <phase duration="6"  state="rrrGGrrrrrrrGGrrrr" minDur="5" maxDur="50"/>
        <phase duration="3"  state="rrryyrrrrrrryyrrrr"/>
        <phase duration="33" state="rrrrrGGggrrrrrGGgg" minDur="5" maxDur="50"/>
        <phase duration="3"  state="rrrrryyggrrrrryygg"/>
        <phase duration="6"  state="rrrrrrrGGrrrrrrrGG" minDur="5" maxDur="50"/>
        <phase duration="3"  state="rrrrrrryyrrrrrrryy"/>
        <param key="jam-threshold" value="30"/>
    </tlLogic>
    <tlLogic id="GS_cluster_25269229_25269230" type="actuated" programID="0" offset="0">
        <phase duration="42" state="rrrGGgGGgg" minDur="5" maxDur="50"/>
        <phase duration="3"  state="rrryyyyyyy"/>
        <phase duration="42" state="GGgGrrrrrr" minDur="5" maxDur="50"/>
        <phase duration="3"  state="yyyyrrrrrr"/>
        <param key="jam-threshold" value="30"/>
    </tlLogic>
    <tlLogic id="GS_cluster_25269233_25269234" type="actuated" programID="0" offset="0">
        <phase duration="42" state="rrGGGGGgg" minDur="5" maxDur="50"/>
        <phase duration="3"  state="rryyyyyyy"/>
        <phase duration="42" state="GgGrrGGrr" minDur="5" maxDur="50"/>
        <phase duration="3"  state="yyyrryyrr"/>
        <param key="jam-threshold" value="30"/>
    </tlLogic>
    <tlLogic id="GS_cluster_25290633_289556239_668591623" type="actuated" programID="0" offset="0">
        <phase duration="41" state="GGrrrGGGG" minDur="7" maxDur="50"/>
        <phase duration="4"  state="yyrrryyyy"/>
        <phase duration="41" state="rrGGGGrrr" minDur="7" maxDur="50"/>
        <phase duration="4"  state="rryyyyrrr"/>
        <param key="jam-threshold" value="30"/>
    </tlLogic>
    <tlLogic id="GS_cluster_25305017_25759202_36815165_36815223" type="actuated" programID="0" offset="0">
        <phase duration="29" state="rrrrrGGGGggrrrrrGGGGgg" minDur="7" maxDur="50"/>
        <phase duration="5"  state="rrrrryyyyggrrrrryyyygg"/>
        <phase duration="6"  state="rrrrrrrrrGGrrrrrrrrrGG" minDur="7" maxDur="50"/>
        <phase duration="5"  state="rrrrrrrrryyrrrrrrrrryy"/>
        <phase duration="29" state="GGGrrrrrrrrGGGggrrrrrr" minDur="10" maxDur="50"/>
        <phase duration="5"  state="yyyrrrrrrrryyyggrrrrrr"/>
        <phase duration="6"  state="rrrGGrrrrrrrrrGGrrrrrr" minDur="10" maxDur="50"/>
        <phase duration="5"  state="rrryyrrrrrrrrryyrrrrrr"/>
        <param key="jam-threshold" value="30"/>
    </tlLogic>
    <tlLogic id="GS_cluster_25305094_25305095_25305096" type="actuated" programID="0" offset="0">
        <phase duration="40" state="GGGGggrrrrGGGg" minDur="7" maxDur="50"/>
        <phase duration="5"  state="yyyyyyrrrryyyy"/>
        <phase duration="40" state="rrrrrrGGGgGrrr" minDur="10" maxDur="50"/>
        <phase duration="5"  state="rrrrrryyyyyrrr"/>
        <param key="jam-threshold" value="30"/>
    </tlLogic>
    <tlLogic id="GS_cluster_25374940_281039330" type="actuated" programID="0" offset="0">
        <phase duration="42" state="GggrrrGGg" minDur="5" maxDur="50"/>
        <phase duration="3"  state="yyyrrryyy"/>
        <phase duration="42" state="rrrGGgGrr" minDur="5" maxDur="50"/>
        <phase duration="3"  state="rrryyyyrr"/>
        <param key="jam-threshold" value="30"/>
    </tlLogic>
    <tlLogic id="GS_cluster_25930494_315738661_315738676_315739196" type="actuated" programID="0" offset="0">
        <phase duration="33" state="GGGggrrrrGGggrrrr" minDur="5" maxDur="50"/>
        <phase duration="3"  state="yyyggrrrryyggrrrr"/>
        <phase duration="6"  state="rrrGGrrrrrrGGrrrr" minDur="5" maxDur="50"/>
        <phase duration="3"  state="rrryyrrrrrryyrrrr"/>
        <phase duration="33" state="rrrrrGGggrrrrGGgg" minDur="5" maxDur="50"/>
        <phase duration="3"  state="rrrrryyggrrrryygg"/>
        <phase duration="6"  state="rrrrrrrGGrrrrrrGG" minDur="5" maxDur="50"/>
        <phase duration="3"  state="rrrrrrryyrrrrrryy"/>
        <param key="jam-threshold" value="30"/>
    </tlLogic>
    <tlLogic id="GS_cluster_265494203_265494204_417957169_60708664" type="actuated" programID="0" offset="0">
        <phase duration="38" state="GGGgGGggrrr" minDur="5" maxDur="50"/>
        <phase duration="3"  state="yyyyyyggrrr"/>
        <phase duration="6"  state="rrrrGGGGrrr" minDur="5" maxDur="50"/>
        <phase duration="3"  state="rrrryyyyrrr"/>
        <phase duration="37" state="GrrrrrrGGGg" minDur="5" maxDur="50"/>
        <phase duration="3"  state="yrrrrrryyyy"/>
        <param key="jam-threshold" value="30"/>
    </tlLogic>
    <tlLogic id="GS_cluster_6646078903_6646078904_6646078927" type="actuated" programID="0" offset="0">
        <phase duration="33" state="GGrrrrrGGGg" minDur="13" maxDur="50"/>
        <phase duration="6"  state="yyrrrrryyyy"/>
        <phase duration="6"  state="GGGGrrrrrrr" minDur="13" maxDur="50"/>
        <phase duration="6"  state="yyyyrrrrrrr"/>
        <phase duration="33" state="rrrrGGgGrrr" minDur="5" maxDur="50"/>
        <phase duration="6"  state="rrrryyyyrrr"/>
        <param key="jam-threshold" value="30"/>
    </tlLogic>
    <tlLogic id="GS_cluster_6646078954_6646078955_6646078956" type="actuated" programID="0" offset="0">
        <phase duration="33" state="GGrrrrrrGGGg" minDur="13" maxDur="50"/>
        <phase duration="6"  state="yyrrrrrryyyy"/>
        <phase duration="6"  state="GGGGrrrrrrrr" minDur="13" maxDur="50"/>
        <phase duration="6"  state="yyyyrrrrrrrr"/>
        <phase duration="33" state="rrrrGGGgGrrr" minDur="5" maxDur="50"/>
        <phase duration="6"  state="rrrryyyyyrrr"/>
        <param key="jam-threshold" value="30"/>
    </tlLogic>
    <tlLogic id="cluster_1403923070_1403923164_1403923574_1403924126_25238281_6646078538_6646078551_6646078552" type="actuated" programID="0" offset="0">
        <phase duration="33" state="rrrrGGGGrrrrrrGGGgg" minDur="13" maxDur="50"/>
        <phase duration="6"  state="rrrryyyyrrrrrryyygg"/>
        <phase duration="6"  state="rrrrrrrrGGrrrrrrrGG" minDur="13" maxDur="50"/>
        <phase duration="6"  state="rrrrrrrryyrrrrrrryy"/>
        <phase duration="33" state="GGggrrrrrrGGggrrrrr" minDur="5" maxDur="50"/>
        <phase duration="6"  state="yyyyrrrrrryyyyrrrrr"/>
        <param key="jam-threshold" value="30"/>
    </tlLogic>
    <tlLogic id="cluster_24982955_25216676_25216683_270234686_288683620_5563102331_5563102332" type="actuated" programID="0" offset="0">
        <phase duration="50" state="GGGggrrrrGGGGg" minDur="5" maxDur="75"/>
        <phase duration="3"  state="yyyggrrrryyyyy"/>
        <phase duration="6"  state="GGGGGrrrrrrrrr" minDur="5" maxDur="50"/>
        <phase duration="3"  state="yyyyyrrrrrrrrr"/>
        <phase duration="3"  state="rrrrrrrrrrrrrr"/>
        <phase duration="10" state="rrrrrGGGgGrrrr" minDur="5" maxDur="50"/>
        <phase duration="3"  state="rrrrryyyyyrrrr"/>
        <phase duration="3"  state="rrrrrrrrrrrrrr"/>
        <param key="jam-threshold" value="30"/>
    </tlLogic>
    <tlLogic id="cluster_25216688_287345303_2898121523_2898121525_2898121527_2898121530_2898121532_2898121535_2898121536_2898121537_305120612" type="actuated" programID="0" offset="0">
        <phase duration="41" state="rrrrGGggrrrrGGgg" minDur="5" maxDur="50"/>
        <phase duration="3"  state="rrrryyyyrrrryyyy"/>
        <phase duration="1"  state="rrrrrrrrrrrrrrrr"/>
        <phase duration="41" state="GGggrrrrGGggrrrr" minDur="5" maxDur="50"/>
        <phase duration="3"  state="yyyyrrrryyyyrrrr"/>
        <phase duration="1"  state="rrrrrrrrrrrrrrrr"/>
        <param key="jam-threshold" value="30"/>
    </tlLogic>
    <tlLogic id="cluster_264810418_278321030_313897788_33982168_353465644_353465646_353465649_36852007" type="actuated" programID="0" offset="0">
        <phase duration="28" state="rrrrGGGGggrrrrGGGGgg" minDur="5" maxDur="50"/>
        <phase duration="5"  state="rrrryyyyggrrrryyyygg"/>
        <phase duration="6"  state="rrrrrrrrGGrrrrrrrrGG" minDur="5" maxDur="50"/>
        <phase duration="5"  state="rrrrrrrryyrrrrrrrryy"/>
        <phase duration="29" state="GGrrrrrrrrGGggrrrrrr" minDur="10" maxDur="50"/>
        <phase duration="5"  state="yyrrrrrrrryyggrrrrrr"/>
        <phase duration="6"  state="rrGGrrrrrrrrGGrrrrrr" minDur="10" maxDur="50"/>
        <phase duration="5"  state="rryyrrrrrrrryyrrrrrr"/>
        <phase duration="1"  state="rrrrrrrrrrrrrrrrrrrr"/>
        <param key="jam-threshold" value="30"/>
    </tlLogic>
    <tlLogic id="cluster_276646808_276646836_34658886_34658887" type="actuated" programID="0" offset="0">
        <phase duration="37" state="GGGGGggrrrrGGGggrrrr" minDur="5" maxDur="50"/>
        <phase duration="3"  state="yyyyyggrrrryyyggrrrr"/>
        <phase duration="6"  state="rrrrrGGrrrrrrrGGrrrr" minDur="5" maxDur="50"/>
        <phase duration="3"  state="rrrrryyrrrrrrryyrrrr"/>
        <phase duration="1"  state="rrrrrrrrrrrrrrrrrrrr"/>
        <phase duration="36" state="rrrrrrrGGggrrrrrGGgg" minDur="5" maxDur="50"/>
        <phase duration="3"  state="rrrrrrryyyyrrrrryyyy"/>
        <phase duration="1"  state="rrrrrrrrrrrrrrrrrrrr"/>
        <param key="jam-threshold" value="30"/>
    </tlLogic>
    <tlLogic id="joinedS_16" type="actuated" programID="0" offset="0">
        <phase duration="42" state="rrGGGGGrrr" minDur="5" maxDur="50"/>
        <phase duration="3"  state="rryyyyyrrr"/>
        <phase duration="42" state="GGrrrrrGGG" minDur="5" maxDur="50"/>
        <phase duration="3"  state="yyrrrrryyy"/>
        <param key="jam-threshold" value="30"/>
    </tlLogic>
    <tlLogic id="joinedS_17" type="actuated" programID="0" offset="0">
        <phase duration="9"  state="GGGGrrrrrrrrrrrrrrrrrrrrrrrrrrrr" minDur="5" maxDur="50"/>
        <phase duration="3"  state="yyyyrrrrrrrrrrrrrrrrrrrrrrrrrrrr"/>
        <phase duration="9"  state="rrrrGGrrrrrrrrrrrrrrrrrrrrrrrrrr" minDur="5" maxDur="50"/>
        <phase duration="3"  state="rrrryyrrrrrrrrrrrrrrrrrrrrrrrrrr"/>
        <phase duration="9"  state="rrrrrrrrrGGrrrrrrrrrrrrrrrrrrrrr" minDur="5" maxDur="50"/>
        <phase duration="3"  state="rrrrrrrrryyrrrrrrrrrrrrrrrrrrrrr"/>
        <phase duration="9"  state="rrrrrrGGGrrGGGGGGrrrrrrrrrrrrrrr" minDur="5" maxDur="50"/>
        <phase duration="3"  state="rrrrrryyyrryyyyyyrrrrrrrrrrrrrrr"/>
        <phase duration="2"  state="rrrrrrrrrrrrrrrrrrrrrrrrrrrrrrrr"/>
        <phase duration="9"  state="rrrrrrrrrrrrrrrrrGGGrrrrrrrrrrrr" minDur="5" maxDur="50"/>
        <phase duration="3"  state="rrrrrrrrrrrrrrrrryyyrrrrrrrrrrrr"/>
        <phase duration="1"  state="rrrrrrrrrrrrrrrrrrrrrrrrrrrrrrrr"/>
        <phase duration="9"  state="rrrrrrGGGrrrrrrrrrrrGGGGGrrrrrrr" minDur="5" maxDur="50"/>
        <phase duration="3"  state="rrrrrryyyrrrrrrrrrrryyyyyrrrrrrr"/>
        <phase duration="1"  state="rrrrrrrrrrrrrrrrrrrrrrrrrrrrrrrr"/>
        <phase duration="9"  state="rrrrrrGGGrrrrrrrrrrrrrrrrGGGGGGG" minDur="5" maxDur="50"/>
        <phase duration="3"  state="rrrrrryyyrrrrrrrrrrrrrrrryyyyyyy"/>
        <phase duration="2"  state="rrrrrrrrrrrrrrrrrrrrrrrrrrrrrrrr"/>
        <param key="jam-threshold" value="30"/>
    </tlLogic>
    <tlLogic id="joinedS_23" type="actuated" programID="0" offset="0">
        <phase duration="24" state="GGGrrrrrrrrrGGGGGGrrrr" minDur="5" maxDur="50"/>
        <phase duration="3"  state="yyyrrrrrrrrryyyyyyrrrr"/>
        <phase duration="24" state="GGGrrrrGGGggrrrrrrGGgg" minDur="5" maxDur="50"/>
        <phase duration="3"  state="yyyrrrryyyggrrrrrryygg"/>
        <phase duration="6"  state="rGGrrrrrrrGGrrrrrrrrGG" minDur="5" maxDur="50"/>
        <phase duration="3"  state="ryyrrrrrrryyrrrrrrrryy"/>
        <phase duration="24" state="GGGGGGgGrrrrrrrrrrrrrG" minDur="5" maxDur="50"/>
        <phase duration="3"  state="yyyyyyyyrrrrrrrrrrrrry"/>
        <param key="jam-threshold" value="30"/>
    </tlLogic>

    <connection from="-103302383#2" to="103302381" fromLane="0" toLane="0" tl="GS_cluster_24982798_288691804" linkIndex="4"/>
    <connection from="-103302383#2" to="26349564#2" fromLane="0" toLane="1" tl="GS_cluster_24982798_288691804" linkIndex="5"/>
    <connection from="-103302383#2" to="103302383#0" fromLane="0" toLane="0" tl="GS_cluster_24982798_288691804" linkIndex="6"/>
    <connection from="-126709272#0" to="707213180#4" fromLane="0" toLane="0" tl="cluster_1403923070_1403923164_1403923574_1403924126_25238281_6646078538_6646078551_6646078552" linkIndex="0"/>
    <connection from="-126709272#0" to="-704809565#1" fromLane="0" toLane="0" tl="cluster_1403923070_1403923164_1403923574_1403924126_25238281_6646078538_6646078551_6646078552" linkIndex="1"/>
    <connection from="-126709272#0" to="161856844#0" fromLane="0" toLane="1" tl="cluster_1403923070_1403923164_1403923574_1403924126_25238281_6646078538_6646078551_6646078552" linkIndex="2"/>
    <connection from="-126709272#0" to="1080293510" fromLane="0" toLane="0" tl="cluster_1403923070_1403923164_1403923574_1403924126_25238281_6646078538_6646078551_6646078552" linkIndex="3"/>
    <connection from="-217696288#0" to="-245623696#2" fromLane="0" toLane="0" tl="GS_91221899" linkIndex="0"/>
    <connection from="-217696288#0" to="10559664#0" fromLane="0" toLane="0" tl="GS_91221899" linkIndex="1"/>
    <connection from="-217696288#0" to="245623696#3" fromLane="0" toLane="0" tl="GS_91221899" linkIndex="2"/>