<?xml version="1.0" encoding="UTF-8"?>

<!-- generated on 2024-07-15 12:27:59 by Eclipse SUMO netconvert Version 1.20.0
<configuration xmlns:xsi="http://www.w3.org/2001/XMLSchema-instance" xsi:noNamespaceSchemaLocation="http://sumo.dlr.de/xsd/netconvertConfiguration.xsd">

    <input>
        <sumo-net-file value="area1_connected.net.xml"/>
    </input>

    <output>
        <plain-output-prefix value="plain"/>
        <output.street-names value="true"/>
    </output>

    <processing>
        <geometry.min-radius.fix.railways value="false"/>
        <geometry.max-grade.fix value="false"/>
        <offset.disable-normalization value="true"/>
        <lefthand value="0"/>
    </processing>

    <junctions>
        <no-turnarounds value="true"/>
        <junctions.corner-detail value="5"/>
        <junctions.limit-turn-speed value="5.50"/>
        <rectangular-lane-cut value="0"/>
    </junctions>

    <pedestrian>
        <walkingareas value="0"/>
    </pedestrian>

</configuration>
-->

<nodes version="1.20" xmlns:xsi="http://www.w3.org/2001/XMLSchema-instance" xsi:noNamespaceSchemaLocation="http://sumo.dlr.de/xsd/nodes_file.xsd">
    <location netOffset="-248979.65,-6603560.62" convBoundary="130985.82,72201.33,138116.17,77293.99" origBoundary="22.487275,59.564699,26.767787,61.363497" projParameter="+proj=utm +zone=35 +ellps=WGS84 +datum=WGS84 +units=m +no_defs"/>

    <node id="1005650212" x="134659.74" y="74242.91" type="priority"/>
    <node id="1008641433" x="137051.55" y="72834.72" type="priority"/>
    <node id="1015634158" x="134002.52" y="73028.71" type="priority"/>
    <node id="1018189824" x="134659.84" y="74570.48" type="priority"/>
    <node id="1025013587" x="133794.85" y="75509.99" type="priority"/>
    <node id="1035583601" x="137108.62" y="73022.15" type="priority"/>
    <node id="1036468063" x="137214.74" y="73090.52" type="priority"/>
    <node id="1093781047" x="133033.35" y="72782.62" type="priority"/>
    <node id="1093781092" x="133025.09" y="72795.09" type="priority"/>
    <node id="1093786809" x="133495.50" y="72835.64" type="priority"/>
    <node id="1094008112" x="133255.01" y="73027.28" type="priority"/>
    <node id="1107341314" x="136364.72" y="75642.39" type="priority"/>
    <node id="1111362247" x="134538.01" y="74660.08" type="right_before_left"/>
    <node id="1111389122" x="136121.34" y="72683.06" type="priority"/>
    <node id="111524351" x="133910.13" y="73568.73" type="priority"/>
    <node id="1121644069" x="136204.43" y="75550.88" type="priority"/>
    <node id="1121644099" x="136207.67" y="75572.42" type="priority"/>
    <node id="113836720" x="132710.01" y="74673.87" type="right_before_left"/>
    <node id="117654832#0-AddedOffRampNode" x="137181.11" y="74521.98" type="priority"/>
    <node id="1180669585" x="133576.14" y="72493.92" type="priority"/>
    <node id="1181332839" x="132715.66" y="75696.39" type="priority"/>
    <node id="1181332861" x="132538.67" y="75896.77" type="priority"/>
    <node id="1306928416" x="135185.94" y="74534.00" type="priority"/>
    <node id="1309633791" x="136916.04" y="76508.91" type="right_before_left"/>
    <node id="1309633792" x="137058.09" y="76519.38" type="priority"/>
    <node id="1309633795" x="137134.48" y="76532.79" type="priority"/>
    <node id="1309633865" x="136788.54" y="76830.26" type="right_before_left"/>
    <node id="1309633866" x="136977.24" y="76867.68" type="right_before_left"/>
    <node id="1309633868" x="136765.52" y="76943.24" type="right_before_left"/>
    <node id="1309633870" x="136955.56" y="76979.49" type="right_before_left"/>
    <node id="1309633874" x="137089.41" y="76993.50" type="right_before_left"/>
    <node id="1309636534" x="134124.55" y="75996.35" type="priority"/>
    <node id="1309636537" x="134131.72" y="76034.01" type="priority"/>
    <node id="1309636542" x="134080.66" y="76360.22" type="priority"/>
    <node id="1311836875" x="135223.73" y="76061.37" type="priority"/>
    <node id="131271490-AddedOnRampNode" x="137199.63" y="75630.66" type="priority"/>
    <node id="1319121893" x="137493.51" y="76268.56" type="right_before_left"/>
    <node id="1319121895" x="137515.12" y="76274.28" type="priority"/>
    <node id="1319121902" x="137549.00" y="76296.79" type="priority"/>
    <node id="1319121903" x="137678.28" y="76305.86" type="priority"/>
    <node id="1319121905" x="137813.37" y="76316.20" type="priority"/>
    <node id="1319121921" x="137764.02" y="76324.04" type="priority"/>
    <node id="1319121925" x="137461.45" y="76381.80" type="right_before_left"/>
    <node id="1319121930" x="137663.01" y="76404.02" type="right_before_left"/>
    <node id="1319121950" x="137634.38" y="76435.08" type="right_before_left"/>
    <node id="1319121952" x="137741.13" y="76446.97" type="right_before_left"/>
    <node id="1319121955" x="137440.33" y="76492.34" type="priority"/>
    <node id="1319121976" x="137884.51" y="76502.84" type="right_before_left"/>
    <node id="1319122008" x="137587.99" y="76633.03" type="right_before_left"/>
    <node id="1319122030" x="137824.16" y="76678.37" type="right_before_left"/>
    <node id="1324407450" x="137503.19" y="76195.82" type="priority"/>
    <node id="1324407459" x="137563.75" y="76227.49" type="priority"/>
    <node id="1324407460" x="137728.38" y="76226.57" type="priority"/>
    <node id="1324407461" x="137442.36" y="76250.68" type="priority"/>
    <node id="1324407500" x="138116.17" y="76319.60" type="priority"/>
    <node id="1324407511" x="138067.02" y="76406.25" type="priority"/>
    <node id="1324709496" x="137405.63" y="75301.56" type="right_before_left"/>
    <node id="1324709514" x="137555.57" y="75360.75" type="right_before_left"/>
    <node id="1324709548" x="137420.32" y="75660.98" type="priority"/>
    <node id="1324725096" x="137603.82" y="75443.04" type="right_before_left"/>
    <node id="1324725104" x="137727.19" y="75500.71" type="right_before_left"/>
    <node id="1324725107" x="137560.88" y="75551.22" type="right_before_left"/>
    <node id="1324725122" x="137845.36" y="75766.81" type="right_before_left"/>
    <node id="1324733152" x="137627.35" y="75385.85" type="priority"/>
    <node id="1324733163" x="137486.86" y="75533.24" type="priority"/>
    <node id="1324733168" x="137459.59" y="75598.69" type="right_before_left"/>
    <node id="1324733169" x="137806.72" y="75873.76" type="priority"/>
    <node id="1324739625" x="137685.90" y="75241.35" type="right_before_left"/>
    <node id="1324777037" x="137766.03" y="75086.44" type="right_before_left"/>
    <node id="1324777061" x="137846.95" y="75141.60" type="right_before_left"/>
    <node id="1324797156" x="137916.51" y="74752.68" type="right_before_left"/>
    <node id="1324797169" x="137692.31" y="74856.32" type="priority"/>
    <node id="1324797179" x="137844.22" y="74916.29" type="priority"/>
    <node id="1324879783" x="137267.36" y="74746.62" type="right_before_left"/>
    <node id="1324879811" x="137492.01" y="74900.86" type="right_before_left"/>
    <node id="1324918300" x="137453.30" y="74518.53" type="priority"/>
    <node id="1324918333" x="137238.47" y="74617.16" type="priority"/>
    <node id="1324918339" x="137555.49" y="74609.61" type="priority"/>
    <node id="1324918384" x="137274.39" y="74624.11" type="right_before_left"/>
    <node id="1324918401" x="137371.58" y="74644.81" type="right_before_left"/>
    <node id="1324918407" x="137474.96" y="74666.73" type="right_before_left"/>
    <node id="1324918417" x="137360.98" y="74700.48" type="priority"/>
    <node id="1324918424" x="137539.20" y="74759.56" type="right_before_left"/>
    <node id="1324918430" x="137452.31" y="74786.62" type="right_before_left"/>
    <node id="1324918435" x="137506.42" y="74799.99" type="right_before_left"/>
    <node id="1324960254" x="137406.75" y="74351.85" type="priority"/>
    <node id="1324960300" x="137519.83" y="74477.55" type="priority"/>
    <node id="1324960312" x="137418.22" y="74486.44" type="priority"/>
    <node id="1324960358" x="137649.05" y="74538.55" type="right_before_left"/>
    <node id="1324960384" x="137625.73" y="74579.98" type="right_before_left"/>
    <node id="1324960395" x="137579.02" y="74633.66" type="priority"/>
    <node id="1324960401" x="137715.60" y="74637.59" type="right_before_left"/>
    <node id="1324960442" x="137671.54" y="74738.70" type="priority"/>
    <node id="1325001938" x="136859.49" y="74344.10" type="right_before_left"/>
    <node id="1325001950" x="136993.33" y="74371.99" type="right_before_left"/>
    <node id="1325001958" x="137074.50" y="74388.97" type="right_before_left"/>
    <node id="1325001974" x="137144.28" y="74403.30" type="priority"/>
    <node id="1325001991" x="136963.99" y="74496.96" type="right_before_left"/>
    <node id="1325001992" x="137052.90" y="74490.12" type="right_before_left"/>
    <node id="1325001994" x="137099.14" y="74497.89" type="priority"/>
    <node id="1325001995" x="136949.69" y="74559.19" type="right_before_left"/>
    <node id="1325001996" x="137035.73" y="74576.34" type="right_before_left"/>
    <node id="1325002008" x="136926.08" y="74663.29" type="priority"/>
    <node id="1325002049" x="137001.55" y="74810.70" type="priority"/>
    <node id="1325022555" x="136869.59" y="74292.81" type="priority"/>
    <node id="1325022604" x="136801.08" y="74484.82" type="right_before_left"/>
    <node id="1325022633" x="136833.47" y="74593.67" type="right_before_left"/>
    <node id="1325022643" x="136863.04" y="74715.41" type="right_before_left"/>
    <node id="1325052121" x="136864.46" y="75208.99" type="priority"/>
    <node id="1329534424" x="136668.51" y="75978.28" type="priority"/>
    <node id="1329534440" x="136533.99" y="75985.21" type="priority"/>
    <node id="1329534443" x="136439.11" y="75996.88" type="priority"/>
    <node id="1329534449" x="136622.80" y="76016.66" type="priority"/>
    <node id="1329534460" x="136843.99" y="76013.96" type="right_before_left"/>
    <node id="1329534464" x="136342.69" y="76047.59" type="priority"/>
    <node id="1329534472" x="136425.99" y="76064.07" type="right_before_left"/>
    <node id="1329534481" x="136519.88" y="76081.81" type="right_before_left"/>
    <node id="1329534486" x="136606.57" y="76098.62" type="right_before_left"/>
    <node id="1329534490" x="137239.83" y="76088.89" type="right_before_left"/>
    <node id="1329534496" x="137353.61" y="76115.74" type="priority"/>
    <node id="1329534504" x="136324.55" y="76159.42" type="traffic_light" tl="1329534504" tlType="actuated"/>
    <node id="1329534509" x="136622.41" y="76216.77" type="priority"/>
    <node id="1329534519" x="137214.80" y="76215.15" type="right_before_left"/>
    <node id="1329534522" x="136826.63" y="76256.40" type="priority"/>
    <node id="1329534543" x="137199.13" y="76330.59" type="priority"/>
    <node id="1336069737" x="136306.64" y="76269.37" type="priority"/>
    <node id="1336069747" x="136486.72" y="76305.17" type="right_before_left"/>
    <node id="1336069752" x="136601.28" y="76328.80" type="right_before_left"/>
    <node id="1336069755" x="136936.84" y="76396.08" type="right_before_left"/>
    <node id="1336069760" x="136463.52" y="76420.21" type="right_before_left"/>
    <node id="1336069767" x="137075.38" y="76422.74" type="right_before_left"/>
    <node id="1336069774" x="136446.73" y="76549.88" type="priority"/>
    <node id="1336084236" x="135954.18" y="76667.05" type="right_before_left"/>
    <node id="1336084237" x="136196.25" y="76684.08" type="right_before_left"/>
    <node id="1336084238" x="136189.43" y="76712.86" type="priority"/>
    <node id="1336084239" x="136246.26" y="76723.23" type="right_before_left"/>
    <node id="134841" x="132920.55" y="75903.39" type="priority"/>
    <node id="134842" x="132827.33" y="75903.04" type="priority"/>
    <node id="134844" x="132323.13" y="75746.75" type="priority"/>
    <node id="135039" x="137168.96" y="74837.28" type="priority"/>
    <node id="1359417241" x="136604.01" y="74315.22" type="right_before_left"/>
    <node id="1359417246" x="136698.06" y="74388.27" type="right_before_left"/>
    <node id="1359417262" x="136548.45" y="74497.41" type="right_before_left"/>
    <node id="1359417271" x="136581.93" y="74854.22" type="priority"/>
    <node id="1368959359" x="135575.38" y="76243.12" type="priority"/>
    <node id="1368959378" x="135840.86" y="76297.37" type="priority"/>
    <node id="1368959397" x="135638.42" y="76329.77" type="priority"/>
    <node id="1368959403" x="135969.44" y="76322.81" type="right_before_left"/>
    <node id="1368959497" x="135611.86" y="76473.95" type="right_before_left"/>
    <node id="1368959518" x="135716.76" y="76494.62" type="right_before_left"/>
    <node id="1368959538" x="135848.21" y="76520.73" type="right_before_left"/>
    <node id="1368959551" x="135889.85" y="76528.72" type="priority"/>
    <node id="1368959603" x="135470.48" y="76577.39" type="priority"/>
    <node id="1368959605" x="135839.02" y="76568.33" type="right_before_left"/>
    <node id="1368959638" x="135586.83" y="76598.61" type="right_before_left"/>
    <node id="1368959660" x="135987.53" y="76597.17" type="priority"/>
    <node id="1368959685" x="135824.09" y="76641.29" type="right_before_left"/>
    <node id="1368959719" x="135475.66" y="76695.14" type="priority"/>
    <node id="1368959725" x="135574.74" y="76715.21" type="right_before_left"/>
    <node id="1368959739" x="135671.36" y="76732.22" type="right_before_left"/>
    <node id="1368959742" x="135796.40" y="76755.56" type="right_before_left"/>
    <node id="1368959744" x="135931.66" y="76782.61" type="right_before_left"/>
    <node id="1368959754" x="135650.28" y="76844.64" type="right_before_left"/>
    <node id="1368959756" x="136169.01" y="76828.80" type="priority"/>
    <node id="1368959761" x="135770.28" y="76867.11" type="right_before_left"/>
    <node id="1368959765" x="135909.99" y="76893.27" type="right_before_left"/>
    <node id="1368975955" x="136276.09" y="72908.78" type="priority"/>
    <node id="1368975958" x="136314.75" y="72991.14" type="priority"/>
    <node id="1369860397" x="134890.38" y="76431.15" type="priority"/>
    <node id="1376456262" x="132483.22" y="75991.25" type="priority"/>
    <node id="1376478204" x="132170.38" y="76404.02" type="dead_end"/>
    <node id="1376478222" x="132266.71" y="76254.82" type="dead_end"/>
    <node id="1392571946" x="137104.60" y="76853.37" type="right_before_left"/>
    <node id="1392571951" x="136441.52" y="76880.03" type="right_before_left"/>
    <node id="1392571977" x="137308.06" y="76874.56" type="priority"/>
    <node id="1392571993" x="136579.56" y="76907.82" type="right_before_left"/>
    <node id="1392572007" x="137356.93" y="76898.10" type="priority"/>
    <node id="1392572010" x="136150.79" y="76937.92" type="priority"/>
    <node id="1392572121" x="137247.62" y="77009.03" type="right_before_left"/>
    <node id="1392572142" x="137343.50" y="77017.97" type="right_before_left"/>
    <node id="1392572241" x="136935.89" y="77082.95" type="right_before_left"/>
    <node id="1392572274" x="137075.31" y="77110.79" type="right_before_left"/>
    <node id="1392572305" x="137157.61" y="77127.75" type="priority"/>
    <node id="1392572337" x="137234.61" y="77144.47" type="right_before_left"/>
    <node id="1394257281" x="132667.10" y="74662.15" type="priority"/>
    <node id="1394257550" x="132657.63" y="75186.83" type="priority"/>
    <node id="1394257557" x="132642.04" y="74677.45" type="priority"/>
    <node id="1394257756" x="132640.94" y="74658.51" type="priority"/>
    <node id="1394257770" x="132507.55" y="74911.68" type="priority"/>
    <node id="1394257786" x="132661.85" y="74655.22" type="priority"/>
    <node id="1394257791" x="132960.04" y="75408.18" type="priority"/>
    <node id="1394257794" x="133324.07" y="74952.09" type="priority"/>
    <node id="1394257812" x="133283.08" y="75118.81" type="priority"/>
    <node id="1394257845" x="133380.87" y="74641.03" type="priority"/>
    <node id="1394257958" x="132665.15" y="74676.09" type="priority"/>
    <node id="1394257960" x="133424.22" y="74822.99" type="priority"/>
    <node id="1394582458" x="132325.41" y="74820.64" type="priority"/>
    <node id="1395320406" x="132172.47" y="75404.20" type="priority"/>
    <node id="1395321291" x="132744.43" y="75640.53" type="priority"/>
    <node id="1396383142" x="133117.81" y="72449.85" type="dead_end"/>
    <node id="1396788416" x="132803.71" y="74046.75" type="priority"/>
    <node id="1399107585" x="133528.04" y="73108.12" type="priority"/>
    <node id="1399108006" x="133500.64" y="72949.21" type="priority"/>
    <node id="1399108566" x="133498.94" y="73022.21" type="priority"/>
    <node id="1399180932" x="133554.88" y="73581.05" type="priority"/>
    <node id="1399181492" x="133217.31" y="73516.48" type="priority"/>
    <node id="1399214410" x="133683.16" y="74025.09" type="priority"/>
    <node id="1401706856" x="133610.96" y="74142.55" type="priority"/>
    <node id="1401706867" x="133331.67" y="73757.01" type="priority"/>
    <node id="1401707822" x="133536.36" y="74124.38" type="priority"/>
    <node id="1401708286" x="133096.29" y="74088.68" type="priority"/>
    <node id="1402161836" x="133576.05" y="75222.13" type="priority"/>
    <node id="1410813163" x="134585.94" y="73668.00" type="priority"/>
    <node id="141359282" x="133793.43" y="75643.81" type="right_before_left"/>
    <node id="1430547942" x="137214.06" y="72789.99" type="priority"/>
    <node id="143488400" x="135984.74" y="74196.56" type="priority"/>
    <node id="143490644" x="133710.68" y="75650.69" type="right_before_left"/>
    <node id="143490651" x="133610.38" y="75626.15" type="priority"/>
    <node id="143490673" x="133335.20" y="75618.62" type="right_before_left"/>
    <node id="143490699" x="133278.97" y="75663.19" type="right_before_left"/>
    <node id="143490791" x="133422.85" y="75414.04" type="priority"/>
    <node id="143490827" x="133475.93" y="75633.84" type="right_before_left"/>
    <node id="143569239" x="133679.05" y="75698.85" type="right_before_left"/>
    <node id="143569388" x="133815.97" y="75510.91" type="priority"/>
    <node id="143569523" x="133611.71" y="75328.72" type="priority"/>
    <node id="143569585" x="133456.69" y="75286.15" type="right_before_left"/>
    <node id="143595907" x="134087.19" y="76268.49" type="priority"/>
    <node id="143595914" x="134066.73" y="76257.21" type="priority"/>
    <node id="143595920" x="134069.04" y="76269.71" type="priority"/>
    <node id="1445137062" x="137199.04" y="74558.86" type="priority"/>
    <node id="1445137063" x="137139.71" y="74853.69" type="priority"/>
    <node id="1445137065" x="137386.00" y="76270.77" type="priority"/>
    <node id="1445137066" x="137377.05" y="76479.05" type="priority"/>
    <node id="1452961547" x="135866.73" y="75383.27" type="priority"/>
    <node id="1452961600" x="136203.90" y="75726.34" type="priority"/>
    <node id="1452961603" x="136379.51" y="75726.80" type="priority"/>
    <node id="1460979929" x="136949.67" y="75142.75" type="priority"/>
    <node id="1460979930" x="136957.06" y="75143.82" type="priority"/>
    <node id="1461035562" x="132432.53" y="75826.59" type="priority"/>
    <node id="1461035577" x="132799.05" y="75884.30" type="priority"/>
    <node id="1461035588" x="132514.62" y="75949.80" type="priority"/>
    <node id="1461247878" x="135544.99" y="76292.11" type="priority"/>
    <node id="1461274503" x="133977.85" y="75633.62" type="priority"/>
    <node id="1461274505" x="134021.98" y="75645.76" type="priority"/>
    <node id="1461274609" x="133931.37" y="76017.09" type="priority"/>
    <node id="1461274653" x="134131.58" y="76134.29" type="priority"/>
    <node id="1461274655" x="134218.80" y="76169.98" type="priority"/>
    <node id="1461274666" x="134282.91" y="76205.23" type="priority"/>
    <node id="1461628822" x="133905.57" y="73407.35" type="priority"/>
    <node id="1461628847" x="133948.55" y="73522.37" type="priority"/>
    <node id="1464570723" x="133616.35" y="72755.57" type="priority"/>
    <node id="1464683164" x="132429.98" y="76160.56" type="dead_end"/>
    <node id="1499964506" x="136181.01" y="74661.68" type="right_before_left"/>
    <node id="1499964518" x="136239.82" y="74685.92" type="right_before_left"/>
    <node id="1499964577" x="136377.64" y="74764.70" type="priority"/>
    <node id="1499964694" x="136291.79" y="74855.90" type="priority"/>
    <node id="1499964732" x="135999.75" y="74903.16" type="right_before_left"/>
    <node id="1499964774" x="136237.81" y="74926.04" type="priority"/>
    <node id="1499964781" x="136585.55" y="74915.76" type="priority"/>
    <node id="1499964882" x="136188.49" y="75009.57" type="priority"/>
    <node id="1499964964" x="136139.18" y="75052.69" type="priority"/>
    <node id="1499964968" x="136162.05" y="75055.72" type="priority"/>
    <node id="1499965002" x="136595.90" y="75088.76" type="priority"/>
    <node id="1499965060" x="136377.70" y="75122.87" type="priority"/>
    <node id="1499965132" x="136421.84" y="75205.87" type="priority"/>
    <node id="1499965179" x="135931.59" y="75279.82" type="priority"/>
    <node id="1499965204" x="135893.28" y="75338.28" type="priority"/>
    <node id="1499965291" x="135957.22" y="75514.86" type="priority"/>
    <node id="1499965304" x="136035.47" y="75604.31" type="priority"/>
    <node id="1499965306" x="136165.80" y="75629.22" type="right_before_left"/>
    <node id="1501480321" x="135649.56" y="75794.74" type="priority"/>
    <node id="1501480326" x="135706.83" y="75808.01" type="right_before_left"/>
    <node id="1501480334" x="136400.65" y="75829.34" type="priority"/>
    <node id="1501480339" x="135908.94" y="75851.46" type="right_before_left"/>
    <node id="1501480360" x="135739.90" y="75932.47" type="right_before_left"/>
    <node id="1501494999" x="136194.04" y="75727.45" type="priority"/>
    <node id="1501550655" x="136485.91" y="75733.25" type="right_before_left"/>
    <node id="1513036494" x="135596.17" y="75841.38" type="priority"/>
    <node id="1513036495" x="135589.40" y="75882.47" type="priority"/>
    <node id="1513036525" x="135711.79" y="76059.59" type="right_before_left"/>
    <node id="1513036549" x="135993.85" y="76208.35" type="right_before_left"/>
    <node id="1513036564" x="135883.69" y="76305.64" type="priority"/>
    <node id="1513050053" x="135596.54" y="75268.43" type="priority"/>
    <node id="1513115543" x="136424.75" y="74234.17" type="priority"/>
    <node id="1513115545" x="136621.13" y="74228.08" type="priority"/>
    <node id="1513115546" x="136771.63" y="74222.82" type="priority"/>
    <node id="1513115550" x="136386.35" y="74252.92" type="priority"/>
    <node id="1513115555" x="136726.21" y="74243.60" type="priority"/>
    <node id="1513115576" x="136758.01" y="74261.57" type="priority"/>
    <node id="1513115608" x="136571.20" y="74368.04" type="priority"/>
    <node id="1513115611" x="136566.02" y="74592.06" type="priority"/>
    <node id="1513115612" x="137125.31" y="74593.87" type="priority"/>
    <node id="1513115616" x="136878.12" y="74781.74" type="priority"/>
    <node id="1513550880" x="136524.61" y="75050.65" type="priority"/>
    <node id="1513550976" x="136772.82" y="75128.88" type="right_before_left"/>
    <node id="1513551167" x="136603.82" y="75217.51" type="priority"/>
    <node id="1513551193" x="136782.60" y="75280.78" type="priority"/>
    <node id="1513551272" x="136655.20" y="75450.44" type="priority"/>
    <node id="1513563506" x="136583.80" y="74883.34" type="priority"/>
    <node id="1513563609" x="137060.20" y="75194.02" type="priority"/>
    <node id="1513594868" x="137735.97" y="75120.29" type="right_before_left"/>
    <node id="1516867793" x="137212.34" y="73780.75" type="right_before_left"/>
    <node id="1516867808" x="137144.41" y="73798.96" type="right_before_left"/>
    <node id="1516867828" x="137228.98" y="73849.55" type="priority"/>
    <node id="1516867835" x="137211.93" y="73853.78" type="priority"/>
    <node id="1516867858" x="137467.78" y="73854.63" type="priority"/>
    <node id="1516868188" x="136663.55" y="73980.11" type="priority"/>
    <node id="1516868312" x="136651.72" y="74021.58" type="right_before_left"/>
    <node id="1516868399" x="136798.53" y="74043.35" type="right_before_left"/>
    <node id="1516868450" x="136865.65" y="74084.07" type="priority"/>
    <node id="1516868622" x="136945.56" y="74135.46" type="priority"/>
    <node id="1516868795" x="136670.41" y="74195.09" type="right_before_left"/>
    <node id="1520521991" x="135696.92" y="72580.02" type="priority"/>
    <node id="1520522198" x="134869.15" y="72852.86" type="priority"/>
    <node id="1520522213" x="134828.53" y="73001.45" type="right_before_left"/>
    <node id="1522903468" x="134979.16" y="73570.85" type="priority"/>
    <node id="1522903523" x="135001.30" y="73742.13" type="priority"/>
    <node id="1522930566" x="134968.88" y="73771.76" type="priority"/>
    <node id="1522930579" x="134972.56" y="73894.56" type="right_before_left"/>
    <node id="1522930627" x="135950.33" y="74036.15" type="right_before_left"/>
    <node id="1522930656" x="135965.93" y="74076.00" type="priority"/>
    <node id="1522930658" x="135958.49" y="74078.22" type="priority"/>
    <node id="1522930706" x="136001.26" y="74209.00" type="priority"/>
    <node id="1522930754" x="135205.39" y="74385.29" type="priority"/>
    <node id="1539249199" x="135891.58" y="72634.76" type="priority"/>
    <node id="1559450126" x="134030.29" y="72759.38" type="priority"/>
    <node id="1619892407" x="136630.14" y="72645.60" type="priority"/>
    <node id="162283060" x="134447.95" y="74846.50" type="right_before_left"/>
    <node id="1625376384" x="134803.70" y="73371.03" type="priority"/>
    <node id="1645286603" x="137119.44" y="73550.08" type="right_before_left"/>
    <node id="1663411819" x="134613.89" y="74667.18" type="right_before_left"/>
    <node id="1663411928" x="134522.29" y="74739.35" type="right_before_left"/>
    <node id="1663412046" x="134458.59" y="74801.08" type="right_before_left"/>
    <node id="1663412049" x="134627.97" y="74805.66" type="right_before_left"/>
    <node id="1671038066" x="133451.71" y="76144.09" type="priority"/>
    <node id="169619041" x="134664.69" y="76378.17" type="priority"/>
    <node id="1702737503" x="136101.71" y="72427.09" type="dead_end"/>
    <node id="1705558857" x="135003.53" y="74546.19" type="priority"/>
    <node id="1718653382" x="134730.04" y="74892.46" type="priority"/>
    <node id="1718653508" x="135019.37" y="74960.28" type="priority"/>
    <node id="1723772543" x="136457.50" y="72443.66" type="dead_end"/>
    <node id="1723772545" x="136462.79" y="72442.22" type="dead_end"/>
    <node id="1723772756" x="136629.60" y="72627.53" type="priority"/>
    <node id="1723772947" x="136109.33" y="72707.39" type="priority"/>
    <node id="1724449462" x="134617.79" y="73036.04" type="priority"/>
    <node id="17245257-AddedOffRampNode" x="134768.73" y="75937.44" type="priority"/>
    <node id="1725065089" x="134841.33" y="73369.90" type="right_before_left"/>
    <node id="1731736000" x="136908.01" y="75469.85" type="right_before_left"/>
    <node id="1731736006" x="136914.80" y="75563.90" type="right_before_left"/>
    <node id="1731736014" x="136919.21" y="75650.18" type="priority"/>
    <node id="1738097704" x="133988.59" y="73964.19" type="priority"/>
    <node id="176279845" x="137689.21" y="73778.83" type="priority"/>
    <node id="178925436" x="137961.36" y="75483.83" type="dead_end"/>
    <node id="179169831" x="134113.59" y="76031.70" type="priority"/>
    <node id="1842157612" x="135701.96" y="72604.39" type="priority"/>
    <node id="1900485362" x="136668.97" y="75512.92" type="right_before_left"/>
    <node id="192415381" x="134589.93" y="72733.72" type="priority"/>
    <node id="192415385" x="134371.45" y="72896.16" type="priority"/>
    <node id="1934228924" x="133472.31" y="72587.65" type="priority"/>
    <node id="1934228927" x="133450.40" y="72729.40" type="priority"/>
    <node id="1934228945" x="134009.49" y="72938.17" type="priority"/>
    <node id="1936241616" x="134037.68" y="76265.28" type="right_before_left"/>
    <node id="1941234905" x="134801.30" y="76547.82" type="priority"/>
    <node id="1941234906" x="134779.63" y="76624.82" type="priority"/>
    <node id="1943993862" x="137235.97" y="73106.85" type="priority"/>
    <node id="1948207200" x="133931.28" y="73262.74" type="priority"/>
    <node id="1967406355" x="136873.30" y="72784.62" type="priority"/>
    <node id="1982797400" x="134877.25" y="75014.01" type="right_before_left"/>
    <node id="1987642182" x="133497.91" y="75720.91" type="priority"/>
    <node id="1987642200" x="133337.21" y="76090.98" type="priority"/>
    <node id="1987672151" x="134690.87" y="73438.98" type="priority"/>
    <node id="1995259688" x="137295.46" y="72910.70" type="priority"/>
    <node id="1995721869" x="132505.11" y="74455.32" type="right_before_left"/>
    <node id="1995747193" x="133252.60" y="73745.66" type="priority"/>
    <node id="1995886925" x="133504.53" y="72775.32" type="priority"/>
    <node id="1997892032" x="137203.95" y="74308.50" type="priority"/>
    <node id="2015676694" x="133707.84" y="73896.09" type="priority"/>
    <node id="2015676695" x="133609.09" y="74266.14" type="priority"/>
    <node id="2041656033" x="135023.79" y="74391.93" type="priority"/>
    <node id="207607479" x="132818.01" y="72676.22" type="priority"/>
    <node id="213396515" x="132607.12" y="75100.09" type="right_before_left"/>
    <node id="213397530" x="132509.54" y="74747.54" type="priority"/>
    <node id="2163615618" x="137120.50" y="72254.93" type="dead_end"/>
    <node id="2168711982" x="136600.08" y="75327.31" type="right_before_left"/>
    <node id="218062104" x="134672.17" y="75092.37" type="priority"/>
    <node id="218087879" x="135544.42" y="75462.82" type="priority"/>