<?xml version="1.0" encoding="UTF-8"?>

<!-- generated on 2024-07-15 12:27:59 by Eclipse SUMO netconvert Version 1.20.0
<configuration xmlns:xsi="http://www.w3.org/2001/XMLSchema-instance" xsi:noNamespaceSchemaLocation="http://sumo.dlr.de/xsd/netconvertConfiguration.xsd">

    <input>
        <sumo-net-file value="area1_connected.net.xml"/>
    </input>

    <output>
        <plain-output-prefix value="plain"/>
        <output.street-names value="true"/>
    </output>

    <processing>
        <geometry.min-radius.fix.railways value="false"/>
        <geometry.max-grade.fix value="false"/>
        <offset.disable-normalization value="true"/>
        <lefthand value="0"/>
    </processing>

    <junctions>
        <no-turnarounds value="true"/>
        <junctions.corner-detail value="5"/>
        <junctions.limit-turn-speed value="5.50"/>
        <rectangular-lane-cut value="0"/>
    </junctions>

    <pedestrian>
        <walkingareas value="0"/>
    </pedestrian>

</configuration>
-->

<edges version="1.20" xmlns:xsi="http://www.w3.org/2001/XMLSchema-instance" xsi:noNamespaceSchemaLocation="http://sumo.dlr.de/xsd/edges_file.xsd">
    <location netOffset="-248979.65,-6603560.62" convBoundary="130985.82,72201.33,138116.17,77293.99" origBoundary="22.487275,59.564699,26.767787,61.363497" projParameter="+proj=utm +zone=35 +ellps=WGS84 +datum=WGS84 +units=m +no_defs"/>

    <edge id="-101486395" from="60706277" to="60706280" name="Vaakalinnuntie" priority="3" type="highway.residential" numLanes="1" speed="8.33" shape="136972.45,73347.55 136965.29,73344.18 136963.28,73342.77 136958.29,73339.39 136936.75,73324.59 136925.91,73315.95 136921.41,73311.65 136904.06,73289.36 136902.11,73287.02 136896.86,73280.16 136893.80,73275.62 136886.73,73257.31 136880.60,73240.03" disallow="tram rail_urban rail rail_electric rail_fast ship">
        <lane index="0">
            <param key="origId" value="101486395 101486394 17006670 61566223"/>
        </lane>
    </edge>
    <edge id="-101520672" from="281871892" to="143569585" name="Vaakakuja" priority="3" type="highway.residential" numLanes="1" speed="8.33" shape="133367.51,75258.36 133369.55,75262.11 133373.04,75263.06 133387.02,75266.93 133429.51,75278.64 133439.19,75281.32 133452.58,75285.01 133456.69,75286.15" disallow="tram rail_urban rail rail_electric rail_fast ship">
        <lane index="0">
            <param key="origId" value="101520672 101520673 14571572"/>
        </lane>
    </edge>
    <edge id="-101521565" from="1516868188" to="1516868312" name="Niittylänpolku" priority="3" type="highway.residential" numLanes="1" speed="11.11" shape="136663.55,73980.11 136661.82,73985.82 136660.77,73989.30 136659.31,73994.17 136656.41,74004.23 136651.72,74021.58" disallow="tram rail_urban rail rail_electric rail_fast ship">
        <lane index="0">
            <param key="origId" value="101521565 101521569"/>
        </lane>
    </edge>
    <edge id="-101521569#0" from="1516868312" to="1516868795" name="Niittylänpolku" priority="3" type="highway.residential" numLanes="1" speed="11.11" shape="136651.72,74021.58 136649.31,74032.58 136647.02,74043.48 136646.00,74048.32 136644.89,74053.14 136639.02,74078.60 136637.08,74087.01 136632.91,74105.53 136624.02,74144.89 136627.23,74171.51 136629.77,74177.64 136632.98,74181.64 136662.88,74188.59 136667.09,74191.79 136670.41,74195.09" disallow="tram rail_urban rail rail_electric rail_fast ship">
        <lane index="0">
            <param key="origId" value="101521569 101521561 138003098"/>
        </lane>
    </edge>
    <edge id="-101731771" from="1325022604" to="1359417246" name="Krämertintie" priority="3" type="highway.residential" numLanes="1" speed="8.33" shape="136801.08,74484.82 136792.69,74478.69 136787.86,74473.43 136775.61,74463.72 136763.31,74453.75 136755.54,74445.37 136733.67,74422.13 136725.15,74414.06 136698.06,74388.27" disallow="tram rail_urban rail rail_electric rail_fast ship">
        <lane index="0">
            <param key="origId" value="101731771 121411749"/>
        </lane>
    </edge>
    <edge id="-102278339" from="305116900" to="25709172" name="Rinne" priority="4" type="highway.unclassified" numLanes="1" speed="11.11" shape="134476.03,73295.88 134477.00,73298.75 134482.01,73299.22 134485.61,73300.94 134490.12,73314.85 134492.69,73322.75 134497.71,73338.22 134499.12,73342.55 134505.73,73362.94 134511.64,73382.75 134513.66,73388.10" disallow="tram rail_urban rail rail_electric rail_fast ship">
        <lane index="0">
            <param key="origId" value="102278339 102278342 102278349 4273629"/>
        </lane>
    </edge>
    <edge id="-102282708#0" from="25692476" to="24982846" name="Ahjokuja" priority="3" type="highway.residential" numLanes="1" speed="8.33" shape="134196.65,73051.90 134199.77,73045.66 134201.66,73041.22 134203.46,73037.02 134209.63,73022.52 134211.42,73018.13 134213.46,73013.16" disallow="tram rail_urban rail rail_electric rail_fast ship">
        <lane index="0">
            <param key="origId" value="102282708 142497092 102282710"/>
        </lane>
    </edge>
    <edge id="-103302383#2" from="3426569908" to="cluster_24982798_288691804" name="Niemenmäentie" priority="3" type="highway.residential" numLanes="1" speed="11.11" shape="133664.54,72740.48 133662.21,72749.54 133661.06,72755.13 133660.23,72759.47 133659.96,72761.82" disallow="tram rail_urban rail rail_electric rail_fast ship">
        <lane index="0">
            <param key="origId" value="103302383"/>
        </lane>
        <param key="origTo" value="24982798"/>
    </edge>
    <edge id="-10357193" from="25435543" to="29542873" name="Viertotien aukio" priority="3" type="highway.residential" numLanes="1" speed="8.33" shape="133950.11,73165.42 133940.70,73155.65 133920.21,73137.17" disallow="tram rail_urban rail rail_electric rail_fast ship">
        <lane index="0">
            <param key="origId" value="10357193"/>
        </lane>
    </edge>
    <edge id="-10357406#1" from="87738633" to="76832092" name="Ilmattarentie" priority="3" type="highway.residential" numLanes="1" speed="13.89" shape="136878.30,72776.85 136881.25,72772.64 136885.74,72766.93" disallow="tram rail_urban rail rail_electric rail_fast ship">
        <lane index="0">
            <param key="origId" value="10357406"/>
        </lane>
    </edge>
    <edge id="-10357406#2" from="1967406355" to="87738633" name="Ilmattarentie" priority="3" type="highway.residential" numLanes="1" speed="13.89" shape="136873.30,72784.62 136875.28,72781.45 136878.30,72776.85" disallow="tram rail_urban rail rail_electric rail_fast ship">
        <lane index="0">
            <param key="origId" value="10357406"/>
        </lane>
    </edge>
    <edge id="-10363301" from="87936925" to="87936762" name="Hiilloskuja" priority="4" type="highway.unclassified" numLanes="1" speed="11.11" shape="132529.35,74572.97 132530.50,74569.83 132530.29,74566.47 132529.50,74561.40 132529.27,74560.67 132522.14,74529.72 132499.57,74461.94 132498.20,74457.75" disallow="tram rail_urban rail rail_electric rail_fast ship">
        <lane index="0">
            <param key="origId" value="10363301"/>
        </lane>
    </edge>
    <edge id="-10372364#0" from="88204914" to="88204537" name="Kornetintie" priority="3" type="highway.residential" numLanes="1" speed="8.33" shape="133206.37,73905.00 133211.07,73901.49 133227.34,73889.40 133252.72,73870.53 133293.21,73840.41 133301.33,73834.37 133330.53,73812.65 133348.80,73799.21 133351.28,73797.38 133357.03,73793.69" disallow="tram rail_urban rail rail_electric rail_fast ship">
        <lane index="0">
            <param key="origId" value="10372364"/>
        </lane>
    </edge>
    <edge id="-10372364#1" from="25374930" to="88204914" name="Kornetintie" priority="3" type="highway.residential" numLanes="1" speed="8.33" shape="133069.84,74015.85 133073.80,74007.66 133075.74,74005.23 133076.79,74004.06 133130.90,73962.70 133206.37,73905.00" disallow="tram rail_urban rail rail_electric rail_fast ship">
        <lane index="0">
            <param key="origId" value="10372364"/>
        </lane>
    </edge>
    <edge id="-10372376" from="88205101" to="88204914" name="Kornetinkuja" priority="3" type="highway.residential" numLanes="1" speed="8.33" shape="133177.06,73867.20 133180.12,73871.13 133201.94,73899.14 133203.07,73900.62 133206.37,73905.00" disallow="tram rail_urban rail rail_electric rail_fast ship">
        <lane index="0">
            <param key="origId" value="10372376"/>
        </lane>
    </edge>
    <edge id="-10372461" from="1401708286" to="88207255" name="Muottikuja" priority="4" type="highway.unclassified" numLanes="1" speed="13.89" shape="133096.29,74088.68 133095.76,74079.33 133107.96,74039.84 133109.02,74036.41 133111.14,74029.56" disallow="tram rail_urban rail rail_electric rail_fast ship">
        <lane index="0">
            <param key="origId" value="10372461"/>
        </lane>
    </edge>
    <edge id="-10373960" from="cluster_1394257722_88246818" to="25305045" name="Viinenkuja" priority="3" type="highway.residential" numLanes="1" speed="8.33" shape="132497.16,75159.30 132494.16,75152.06 132491.44,75145.26 132483.77,75125.98 132465.32,75080.43 132462.78,75074.18 132458.66,75066.67 132438.69,75029.54 132409.05,74974.42 132406.07,74968.81 132375.22,74912.75" disallow="tram rail_urban rail rail_electric rail_fast ship">
        <lane index="0">
            <param key="origId" value="10373960"/>
        </lane>
        <param key="origFrom" value="88246818"/>
    </edge>
    <edge id="-10374052" from="88248982" to="88246819" name="Nuolitie" priority="3" type="highway.residential" numLanes="1" speed="13.89" shape="132568.13,75307.76 132558.92,75296.63 132544.94,75270.59 132500.27,75187.48" disallow="tram rail_urban rail rail_electric rail_fast ship">
        <lane index="0">
            <param key="origId" value="10374052"/>
        </lane>
    </edge>
    <edge id="-10374120" from="1395320406" to="25305038" name="Rakentajantie" priority="3" type="highway.residential" numLanes="1" speed="8.33" shape="132172.47,75404.20 132178.98,75395.35 132204.47,75378.54 132216.20,75370.64 132259.88,75344.49 132275.78,75334.93 132283.41,75328.62 132288.81,75322.47 132293.39,75313.79" disallow="tram rail_urban rail rail_electric rail_fast ship">
        <lane index="0">
            <param key="origId" value="10374120"/>
        </lane>
    </edge>
    <edge id="-10425852" from="89133721" to="89133679" name="Purpurikuja" priority="3" type="highway.residential" numLanes="1" speed="11.11" shape="133254.74,76048.55 133285.42,75993.19 133290.00,75982.51" disallow="tram rail_urban rail rail_electric rail_fast ship">
        <lane index="0">
            <param key="origId" value="10425852"/>
        </lane>
    </edge>
    <edge id="-10425858" from="1987642200" to="89133798" name="Polkkakuja" priority="3" type="highway.residential" numLanes="1" speed="11.11" shape="133337.21,76090.98 133365.71,76038.93 133366.97,76036.63 133372.86,76025.84" disallow="tram rail_urban rail rail_electric rail_fast ship">
        <lane index="0">
            <param key="origId" value="10425858"/>
        </lane>
    </edge>
    <edge id="-10425883" from="89134233" to="89134185" name="Pelimanninkuja" priority="3" type="highway.residential" numLanes="1" speed="11.11" shape="133456.02,76025.14 133434.09,76013.34 133423.52,76032.68 133421.64,76036.12 133419.82,76039.44 133415.30,76047.67" disallow="tram rail_urban rail rail_electric rail_fast ship">
        <lane index="0">
            <param key="origId" value="10425883"/>
        </lane>
    </edge>
    <edge id="-10426011#1" from="1671038066" to="cluster_246242355_89135194" name="Klaneettikuja" priority="4" type="highway.unclassified" numLanes="1" speed="11.11" shape="133451.71,76144.09 133462.98,76150.14 133478.78,76158.62 133481.54,76160.09 133487.18,76163.12" disallow="tram rail_urban rail rail_electric rail_fast ship">
        <lane index="0">
            <param key="origId" value="10426011"/>
        </lane>
        <param key="origTo" value="89135194"/>
    </edge>
    <edge id="-10426021#1" from="89135493" to="cluster_246241148_89135313" name="Kitarakuja" priority="3" type="highway.residential" numLanes="1" speed="8.33" shape="133451.64,76307.79 133445.48,76301.37 133436.61,76292.15 133429.59,76286.60" disallow="tram rail_urban rail rail_electric rail_fast ship">
        <lane index="0">
            <param key="origId" value="10426021"/>
        </lane>
        <param key="origTo" value="89135313"/>
    </edge>
    <edge id="-10426171#0" from="89137568" to="89137461" name="Viulutie" priority="3" type="highway.residential" numLanes="1" speed="11.11" shape="133655.57,76150.87 133650.25,76158.28 133648.00,76161.42 133642.51,76170.45" disallow="tram rail_urban rail rail_electric rail_fast ship">
        <lane index="0">
            <param key="origId" value="10426171"/>
        </lane>
    </edge>
    <edge id="-10426171#1" from="89137574" to="89137568" name="Viulutie" priority="3" type="highway.residential" numLanes="1" speed="11.11" shape="133796.34,76085.96 133784.77,76093.34 133751.84,76146.16 133747.82,76150.39 133743.75,76154.69 133736.72,76159.82 133727.81,76163.94 133719.63,76165.63 133711.41,76164.81 133689.43,76153.97 133681.61,76150.12 133672.30,76148.77 133665.75,76148.71 133655.57,76150.87" disallow="tram rail_urban rail rail_electric rail_fast ship">
        <lane index="0">
            <param key="origId" value="10426171"/>
        </lane>
    </edge>
    <edge id="-10426173" from="89137618" to="89137568" name="Viulutie" priority="3" type="highway.residential" numLanes="1" speed="11.11" shape="133609.22,76120.63 133623.03,76124.36 133642.95,76135.61 133646.50,76139.42 133652.30,76145.63 133655.57,76150.87" disallow="tram rail_urban rail rail_electric rail_fast ship">
        <lane index="0">
            <param key="origId" value="10426173"/>
        </lane>
    </edge>
    <edge id="-10426204#0" from="89137949" to="89137923" name="Halsuantie" priority="3" type="highway.residential" numLanes="1" speed="11.11" shape="133991.92,76193.71 133972.09,76231.67 133972.03,76237.07 133971.85,76252.39 133971.81,76255.82 133971.37,76267.42" disallow="tram rail_urban rail rail_electric rail_fast ship">
        <lane index="0">
            <param key="origId" value="10426204"/>
        </lane>
    </edge>
    <edge id="-10426204#1" from="1461274609" to="89137949" name="Halsuantie" priority="3" type="highway.residential" numLanes="1" speed="11.11" shape="133931.37,76017.09 133939.20,76016.37 133984.89,76040.71 134021.81,76060.08 134025.68,76062.90 134032.16,76073.32 134038.84,76084.06 134041.20,76092.35 134041.70,76097.26 134041.19,76102.53 134039.72,76107.03 134025.39,76132.46 134021.21,76139.87 134019.23,76143.52 133994.83,76188.42 133991.92,76193.71" disallow="tram rail_urban rail rail_electric rail_fast ship">
        <lane index="0">
            <param key="origId" value="10426204"/>
        </lane>
    </edge>
    <edge id="-10426219" from="89138072" to="89137949" name="Vetelintie" priority="3" type="highway.residential" numLanes="1" speed="11.11" shape="133881.08,76138.51 133892.35,76140.71 133910.55,76150.60 133912.91,76151.86 133922.05,76156.74 133945.02,76168.87 133962.76,76178.25 133984.95,76190.03 133991.92,76193.71" disallow="tram rail_urban rail rail_electric rail_fast ship">
        <lane index="0">
            <param key="origId" value="10426219"/>
        </lane>
    </edge>
    <edge id="-10502291#1" from="3386574218" to="cluster_1461274661_26400200" name="Pelikuja" priority="4" type="highway.unclassified" numLanes="1" speed="11.11" shape="134215.35,76253.73 134238.75,76197.36 134239.71,76195.06 134242.14,76189.48" disallow="tram rail_urban rail rail_electric rail_fast ship">
        <lane index="0">
            <param key="origId" value="10502291"/>
        </lane>
        <param key="origTo" value="26400200"/>
    </edge>
    <edge id="-10508541" from="3402708737" to="38549296" name="Kaarelankuja" priority="3" type="highway.residential" numLanes="1" speed="11.11" disallow="tram rail_urban rail rail_electric rail_fast ship">
        <lane index="0">
            <param key="origId" value="10508541"/>
        </lane>
    </edge>
    <edge id="-10508719" from="1941234905" to="38560928" name="Kirjokiventie" priority="3" type="highway.residential" numLanes="1" speed="11.11" shape="134801.30,76547.82 134804.65,76550.19 134810.91,76554.61" disallow="tram rail_urban rail rail_electric rail_fast ship">
        <lane index="0">
            <param key="origId" value="10508719"/>
        </lane>
    </edge>
    <edge id="-10508974#0" from="90434690" to="169619041" name="Kirjokalliontie" priority="3" type="highway.residential" numLanes="1" speed="8.33" disallow="tram rail_urban rail rail_electric rail_fast ship">
        <lane index="0">
            <param key="origId" value="10508974"/>
        </lane>
    </edge>
    <edge id="-10509023" from="90437684" to="90434690" name="Kaunismäenkuja" priority="3" type="highway.residential" numLanes="1" speed="8.33" shape="134595.89,76379.70 134628.65,76407.67 134642.05,76417.18" disallow="tram rail_urban rail rail_electric rail_fast ship">
        <lane index="0">
            <param key="origId" value="10509023"/>
        </lane>
    </edge>
    <edge id="-1052613455" from="1461628822" to="9673691726" name="Poliisiasemankuja" priority="3" type="highway.residential" numLanes="1" speed="8.33" shape="133905.57,73407.35 133910.30,73409.85 133947.12,73427.49 133952.68,73430.15 133957.13,73432.28 133965.71,73436.39" disallow="tram rail_urban rail rail_electric rail_fast ship">
        <lane index="0">
            <param key="origId" value="1052613455"/>
        </lane>
    </edge>
    <edge id="-10557968" from="26429755" to="288888403" name="Eliel Saarisen tie" priority="4" type="highway.unclassified" numLanes="1" speed="11.11" shape="134434.34,74282.07 134416.59,74256.87 134409.18,74246.53 134401.09,74236.12 134367.55,74195.63 134292.06,74104.78" disallow="pedestrian tram rail_urban rail rail_electric rail_fast ship">
        <lane index="0">
            <param key="origId" value="10557968 365469908"/>
        </lane>
    </edge>
    <edge id="-10558007#0" from="305155910" to="26429810" name="Laajasuontie" priority="3" type="highway.residential" numLanes="1" speed="11.11" disallow="tram rail_urban rail rail_electric rail_fast ship">
        <lane index="0">
            <param key="origId" value="10558007"/>
        </lane>
    </edge>
    <edge id="-10558102" from="1738097704" to="26399566" name="Riistavuorenkuja" priority="3" type="highway.residential" numLanes="1" speed="11.11" shape="133988.59,73964.19 133982.62,73964.24 133976.35,73966.85 133972.16,73970.25 133954.86,73992.51 133952.43,73996.47 133951.38,74000.21 133950.72,74003.79 133950.83,74007.47 133950.93,74010.98 133951.25,74019.80 133951.50,74026.33 133951.45,74027.75 133951.81,74034.75 133951.90,74037.31 133952.06,74038.71 133952.50,74049.12 133952.58,74053.46 133953.03,74068.22 133953.56,74072.76 133953.89,74077.05 133955.50,74093.93 133956.18,74099.81 133956.71,74104.38 133957.19,74111.02 133957.46,74114.76 133959.14,74138.11 133960.15,74143.44 133960.72,74146.42 133961.52,74150.54 133966.20,74169.08" disallow="tram rail_urban rail rail_electric rail_fast ship">
        <lane index="0">
            <param key="origId" value="10558102 84639243 84639217 84639224 84639211 8064518 84639218"/>
        </lane>
    </edge>
    <edge id="-10558824" from="1410813163" to="34035897" name="Kauppalankuja" priority="3" type="highway.residential" numLanes="1" speed="11.11" shape="134585.94,73668.00 134580.01,73668.13 134572.84,73670.16" disallow="tram rail_urban rail rail_electric rail_fast ship">
        <lane index="0">
            <param key="origId" value="10558824"/>
        </lane>
    </edge>
    <edge id="-10559035" from="314941077" to="91204647" name="Mäkipellonaukio" priority="10" type="highway.tertiary" numLanes="1" speed="11.11" shape="134781.34,74195.25 134779.43,74191.34 134778.49,74189.36 134772.68,74178.59 134751.82,74148.23" disallow="tram rail_urban rail rail_electric rail_fast ship">
        <lane index="0">
            <param key="origId" value="10559035"/>
        </lane>
    </edge>
    <edge id="-10559379" from="91214839" to="7916963829" name="Adolf Lindforsin tie" priority="3" type="highway.residential" numLanes="1" speed="11.11" shape="134100.07,75371.01 134100.12,75357.69 134106.13,75339.41 134116.20,75310.86 134125.05,75298.35 134139.76,75287.55 134142.57,75285.01 134151.70,75281.72 134162.17,75279.87 134210.20,75273.92 134223.76,75271.79 134238.73,75269.70 134280.98,75263.39 134288.45,75262.26 134301.48,75260.55 134344.91,75254.87 134349.45,75254.27 134366.98,75251.98 134408.80,75246.51 134413.98,75245.59 134419.41,75244.63 134424.07,75243.56 134424.83,75243.32 134427.70,75242.33" disallow="tram rail_urban rail rail_electric rail_fast ship">
        <lane index="0">
            <param key="origId" value="10559379 855931740"/>
        </lane>
    </edge>
    <edge id="-1069054067" from="1520521991" to="2430271727" name="Radiokatu" priority="10" type="highway.tertiary" numLanes="1" speed="11.11" shape="135696.92,72580.02 135697.21,72569.42 135695.09,72562.09 135681.31,72537.30 135657.82,72495.11 135657.71,72494.91" disallow="tram rail_urban rail rail_electric rail_fast ship">
        <lane index="0">
            <param key="origId" value="1069054067 301503169 301503168"/>
        </lane>
    </edge>
    <edge id="-1075684663#0" from="9865308059" to="9865308058" priority="7" type="highway.primary_link" numLanes="1" speed="22.22" shape="136138.29,72580.80 136135.18,72590.00 136131.73,72605.06" disallow="tram rail_urban rail rail_electric rail_fast ship">
        <lane index="0">
            <param key="origId" value="1075684663"/>
        </lane>
    </edge>
    <edge id="-1075684663#1" from="9865308056" to="9865308059" priority="7" type="highway.primary_link" numLanes="1" speed="22.22" shape="136156.62,72556.00 136148.66,72562.11 136141.55,72572.73 136138.29,72580.80" disallow="tram rail_urban rail rail_electric rail_fast ship">
        <lane index="0">
            <param key="origId" value="1075684663"/>
        </lane>
    </edge>
    <edge id="-1076691210" from="24982823" to="277414640" name="Kauppalantie" priority="11" type="highway.secondary" numLanes="3" speed="11.11" disallow="tram rail_urban rail rail_electric rail_fast ship">
        <lane index="0">
            <param key="origId" value="1076691210"/>
        </lane>
        <lane index="1">
            <param key="origId" value="1076691210"/>
        </lane>
        <lane index="2">
            <param key="origId" value="1076691210"/>
        </lane>
    </edge>
    <edge id="-1080290022" from="cluster_25238310_25238649" to="cluster_25238472_25238490" name="Vanha viertotie" priority="3" type="highway.residential" numLanes="1" speed="8.33" shape="133481.24,73600.40 133480.35,73598.80 133478.61,73595.32 133477.15,73591.23 133476.27,73588.80 133474.39,73581.23 133473.74,73578.15 133473.07,73572.96 133472.71,73568.01 133473.03,73563.23 133473.95,73557.50 133475.37,73552.24 133477.71,73545.67 133482.08,73534.27 133492.87,73508.33 133500.09,73493.16 133509.19,73477.27 133510.94,73474.58 133516.75,73465.81 133530.79,73444.69 133553.34,73412.92 133560.15,73401.32 133564.00,73394.26 133576.66,73368.69 133593.23,73335.26 133597.74,73327.78 133612.33,73303.55 133614.17,73300.48 133618.89,73291.16" disallow="tram rail_urban rail rail_electric rail_fast ship">
        <lane index="0">
            <param key="origId" value="1080290022 126499969 29509214"/>
        </lane>
        <param key="origFrom" value="25238310"/>
        <param key="origTo" value="25238472"/>
    </edge>
    <edge id="-116049438" from="1309633868" to="1309633865" name="Halkosuonkuja" priority="3" type="highway.residential" numLanes="1" speed="8.33" shape="136765.52,76943.24 136767.15,76935.18 136787.22,76836.57 136788.54,76830.26" disallow="tram rail_urban rail rail_electric rail_fast ship">
        <lane index="0">
            <param key="origId" value="116049438"/>
        </lane>
    </edge>
    <edge id="-116049439#0" from="1309633792" to="1336069767" name="Jakotie" priority="3" type="highway.residential" numLanes="1" speed="8.33" shape="137058.09,76519.38 137067.16,76468.87 137074.74,76426.62 137075.38,76422.74" disallow="tram rail_urban rail rail_electric rail_fast ship">
        <lane index="0">
            <param key="origId" value="116049439"/>
        </lane>
    </edge>
    <edge id="-116049439#1" from="1309633795" to="1309633792" name="Jakotie" priority="3" type="highway.residential" numLanes="1" speed="8.33" shape="137134.48,76532.79 137110.29,76528.54 137087.39,76524.52 137058.09,76519.38" disallow="tram rail_urban rail rail_electric rail_fast ship">
        <lane index="0">
            <param key="origId" value="116049439"/>
        </lane>
    </edge>
    <edge id="-116049442" from="1336069755" to="1309633791" name="Markelininpolku" priority="3" type="highway.residential" numLanes="1" speed="8.33" shape="136936.84,76396.08 136929.25,76437.23 136923.62,76467.81 136922.67,76472.98 136916.04,76508.91" disallow="tram rail_urban rail rail_electric rail_fast ship">
        <lane index="0">
            <param key="origId" value="116049442"/>
        </lane>
    </edge>
    <edge id="-116049443#1" from="1309633870" to="1392572241" name="Palosuontie" priority="3" type="highway.residential" numLanes="1" speed="8.33" shape="136955.56,76979.49 136942.44,77048.87 136938.28,77069.85 136936.71,77078.48 136935.89,77082.95" disallow="tram rail_urban rail rail_electric rail_fast ship">
        <lane index="0">
            <param key="origId" value="116049443"/>
        </lane>
    </edge>
    <edge id="-116049443#2" from="1309633866" to="1309633870" name="Palosuontie" priority="3" type="highway.residential" numLanes="1" speed="8.33" shape="136977.24,76867.68 136977.28,76874.84 136956.81,76973.50 136955.56,76979.49" disallow="tram rail_urban rail rail_electric rail_fast ship">
        <lane index="0">
            <param key="origId" value="116049443"/>
        </lane>
    </edge>
    <edge id="-116049443#3" from="286034527" to="1309633866" name="Palosuontie" priority="3" type="highway.residential" numLanes="1" speed="8.33" shape="136993.93,76684.49 136986.68,76682.82 136983.55,76693.95 136979.43,76708.61 136977.59,76721.94 136976.32,76731.63 136974.07,76750.08 136973.77,76752.88 136973.01,76759.30 136971.63,76773.92 136972.77,76793.48 136973.14,76800.23 136974.91,76831.05 136976.58,76857.30 136977.24,76867.68" disallow="tram rail_urban rail rail_electric rail_fast ship">
        <lane index="0">
            <param key="origId" value="116049443"/>
        </lane>
    </edge>
    <edge id="-116049444#0" from="1309633874" to="1392572274" name="Ripusuonpolku" priority="3" type="highway.residential" numLanes="1" speed="8.33" shape="137089.41,76993.50 137076.76,77102.75 137075.31,77110.79" disallow="tram rail_urban rail rail_electric rail_fast ship">
        <lane index="0">
            <param key="origId" value="116049444"/>
        </lane>
    </edge>
    <edge id="-116049444#1" from="1392571946" to="1309633874" name="Ripusuonpolku" priority="3" type="highway.residential" numLanes="1" speed="8.33" shape="137104.60,76853.37 137104.29,76856.89 137089.41,76993.50" disallow="tram rail_urban rail rail_electric rail_fast ship">
        <lane index="0">
            <param key="origId" value="116049444"/>
        </lane>
    </edge>
    <edge id="-116049788#0" from="1309636542" to="6452785219" name="Kantelettarentie" priority="11" type="highway.secondary" numLanes="1" speed="11.11" shape="134080.66,76360.22 134081.96,76334.14 134081.31,76312.44 134081.47,76304.98 134081.30,76301.01" disallow="tram rail_urban rail rail_electric rail_fast ship">
        <lane index="0">
            <param key="origId" value="116049788 864666000"/>
        </lane>
    </edge>
    <edge id="-116610243" from="25009482" to="25009500" name="Taiteentekijäntie" priority="3" type="highway.residential" numLanes="1" speed="11.11" shape="132568.99,72994.48 132608.61,73001.10 132617.20,73001.55 132624.93,73000.40 132661.60,72982.35 132667.06,72979.85" disallow="tram rail_urban rail rail_electric rail_fast ship">
        <lane index="0">
            <param key="origId" value="116610243 26968403"/>
        </lane>
    </edge>
    <edge id="-117099133" from="1319121921" to="1319121952" name="Kansankuja" priority="3" type="highway.residential" numLanes="1" speed="8.33" shape="137764.02,76324.04 137759.17,76351.01 137757.37,76361.81 137755.21,76374.69 137750.43,76402.01 137750.13,76403.54 137745.71,76425.73 137742.54,76441.67 137741.13,76446.97" disallow="tram rail_urban rail rail_electric rail_fast ship">
        <lane index="0">
            <param key="origId" value="117099133"/>
        </lane>
    </edge>
    <edge id="-117099147#0" from="cluster_1319121978_1319121981" to="8377327391" name="Manttaalitie" priority="3" type="highway.residential" numLanes="1" speed="8.33" shape="137621.05,76528.27 137629.86,76529.94" disallow="tram rail_urban rail rail_electric rail_fast ship">
        <lane index="0">
            <param key="origId" value="117099147"/>
        </lane>
        <param key="origFrom" value="1319121981"/>
    </edge>
    <edge id="-117099147#2" from="1319121955" to="cluster_1319121978_1319121981" name="Manttaalitie" priority="3" type="highway.residential" numLanes="1" speed="8.33" shape="137440.33,76492.34 137454.74,76495.17 137467.49,76497.73 137473.98,76499.03 137492.18,76502.64 137497.09,76503.62 137499.80,76504.16 137514.05,76506.99 137528.53,76509.91 137531.36,76510.47 137535.70,76511.33 137550.53,76514.25 137554.97,76515.13 137555.87,76515.30 137560.07,76516.14 137576.57,76519.49 137581.27,76520.41 137609.35,76525.93" disallow="tram rail_urban rail rail_electric rail_fast ship">
        <lane index="0">
            <param key="origId" value="117099147"/>