<?xml version="1.0" encoding="UTF-8"?>
<!-- generated on 2023-07-05 14:05:03.077010 by randomTrips.py v1_13_0+0000-4b5bca80615
<configuration>
    <end value="900"/>
    <fringe-factor value="5.0"/>
    <min-distance value="1500.0"/>
    <net-file value="C:\Users\bochenin\RL project\materials\ridesharing\toy example\randgrid.net.xml"/>
    <route-file value="C:\Users\bochenin\RL project\materials\ridesharing\toy example\randgrid.rou.xml"/>
    <trip-attributes value="departLane=&quot;best&quot; departSpeed=&quot;max&quot; departPos=&quot;random&quot;"/>
    <output-trip-file value="C:\Users\bochenin\RL project\materials\ridesharing\toy example\randgrid.trips.xml"/>
</configuration>

-->
<routes xmlns:xsi="http://www.w3.org/2001/XMLSchema-instance" xsi:noNamespaceSchemaLocation="http://sumo.dlr.de/xsd/routes_file.xsd">
    <trip id="0" depart="0.00" from="-4479" to="-1212" departLane="best" departSpeed="0" departPos="0"/>
    <trip id="1" depart="1.00" from="-1209" to="-2492" departLane="best" departSpeed="0" departPos="0"/>
    <trip id="2" depart="2.00" from="-3663" to="-2251" departLane="best" departSpeed="0" departPos="0"/>
    <trip id="3" depart="3.00" from="4890" to="-4297" departLane="best" departSpeed="0" departPos="0"/>
    <trip id="4" depart="4.00" from="2924" to="3372" departLane="best" departSpeed="0" departPos="0"/>
    <trip id="5" depart="5.00" from="-2333" to="3372" departLane="best" departSpeed="0" departPos="0"/>
    <trip id="6" depart="6.00" from="-3372" to="-3214" departLane="best" departSpeed="0" departPos="0"/>
    <trip id="7" depart="7.00" from="3531" to="-3930" departLane="best" departSpeed="0" departPos="0"/>
    <trip id="8" depart="8.00" from="1940" to="2126" departLane="best" departSpeed="0" departPos="0"/>
    <trip id="9" depart="9.00" from="-3144" to="2664" departLane="best" departSpeed="0" departPos="0"/>
    <trip id="10" depart="10.00" from="-4890" to="-2387" departLane="best" departSpeed="0" departPos="0"/>
    <trip id="11" depart="11.00" from="2344" to="2138" departLane="best" departSpeed="0" departPos="0"/>
    <trip id="12" depart="12.00" from="3587" to="4479" departLane="best" departSpeed="0" departPos="0"/>
    <trip id="13" depart="13.00" from="-4741" to="2173" departLane="best" departSpeed="0" departPos="0"/>
    <trip id="14" depart="14.00" from="-4493" to="-2662" departLane="best" departSpeed="0" departPos="0"/>
    <trip id="15" depart="15.00" from="-5074" to="338" departLane="best" departSpeed="0" departPos="0"/>
    <trip id="16" depart="16.00" from="-2442" to="-3922" departLane="best" departSpeed="0" departPos="0"/>
    <trip id="17" depart="17.00" from="-4527" to="1962" departLane="best" departSpeed="0" departPos="0"/>
    <trip id="18" depart="18.00" from="-3590" to="2344" departLane="best" departSpeed="0" departPos="0"/>
    <trip id="19" depart="19.00" from="-27" to="4873" departLane="best" departSpeed="0" departPos="0"/>
    <trip id="20" depart="20.00" from="-1950" to="1178" departLane="best" departSpeed="0" departPos="0"/>
    <trip id="21" depart="21.00" from="-4358" to="-43" departLane="best" departSpeed="0" departPos="0"/>
    <trip id="22" depart="22.00" from="-2402" to="1257" departLane="best" departSpeed="0" departPos="0"/>
    <trip id="23" depart="23.00" from="-4479" to="-3363" departLane="best" departSpeed="0" departPos="0"/>
    <trip id="24" depart="24.00" from="991" to="4493" departLane="best" departSpeed="0" departPos="0"/>
    <trip id="25" depart="25.00" from="58" to="5053" departLane="best" departSpeed="0" departPos="0"/>
    <trip id="26" depart="26.00" from="-4747" to="-2664" departLane="best" departSpeed="0" departPos="0"/>
    <trip id="27" depart="27.00" from="-4358" to="-1614" departLane="best" departSpeed="0" departPos="0"/>
    <trip id="28" depart="28.00" from="-2251" to="-3663" departLane="best" departSpeed="0" departPos="0"/>
    <trip id="29" depart="29.00" from="-1610" to="2333" departLane="best" departSpeed="0" departPos="0"/>
    <trip id="30" depart="30.00" from="-2271" to="5178" departLane="best" departSpeed="0" departPos="0"/>
    <trip id="31" depart="31.00" from="-4479" to="2331" departLane="best" departSpeed="0" departPos="0"/>
    <trip id="32" depart="32.00" from="-2480" to="3368" departLane="best" departSpeed="0" departPos="0"/>
    <trip id="33" depart="33.00" from="-3372" to="3660" departLane="best" departSpeed="0" departPos="0"/>
    <trip id="34" depart="34.00" from="-1755" to="-2664" departLane="best" departSpeed="0" departPos="0"/>
    <trip id="35" depart="35.00" from="-3938" to="-2273" departLane="best" departSpeed="0" departPos="0"/>
    <trip id="36" depart="36.00" from="1492" to="-3195" departLane="best" departSpeed="0" departPos="0"/>
    <trip id="37" depart="37.00" from="-4853" to="4873" departLane="best" departSpeed="0" departPos="0"/>
    <trip id="38" depart="38.00" from="-4493" to="-3359" departLane="best" departSpeed="0" departPos="0"/>
    <trip id="39" depart="39.00" from="-1766" to="4718" departLane="best" departSpeed="0" departPos="0"/>
    <trip id="40" depart="40.00" from="2650" to="4531" departLane="best" departSpeed="0" departPos="0"/>
    <trip id="41" depart="41.00" from="2440" to="4718" departLane="best" departSpeed="0" departPos="0"/>
    <trip id="42" depart="42.00" from="-2243" to="5055" departLane="best" departSpeed="0" departPos="0"/>
    <trip id="43" depart="43.00" from="-1205" to="3503" departLane="best" departSpeed="0" departPos="0"/>
    <trip id="44" depart="44.00" from="-3507" to="5055" departLane="best" departSpeed="0" departPos="0"/>
    <trip id="45" depart="45.00" from="3501" to="4531" departLane="best" departSpeed="0" departPos="0"/>
    <trip id="46" depart="46.00" from="-4716" to="-3806" departLane="best" departSpeed="0" departPos="0"/>
    <trip id="47" depart="47.00" from="-1204" to="-2440" departLane="best" departSpeed="0" departPos="0"/>
    <trip id="48" depart="48.00" from="1186" to="1950" departLane="best" departSpeed="0" departPos="0"/>
    <trip id="49" depart="49.00" from="-1002" to="5053" departLane="best" departSpeed="0" departPos="0"/>
    <trip id="50" depart="50.00" from="-5070" to="3368" departLane="best" departSpeed="0" departPos="0"/>
    <trip id="51" depart="51.00" from="2251" to="3096" departLane="best" departSpeed="0" departPos="0"/>
    <trip id="52" depart="52.00" from="1774" to="-4267" departLane="best" departSpeed="0" departPos="0"/>
    <trip id="53" depart="53.00" from="-3372" to="4527" departLane="best" departSpeed="0" departPos="0"/>
    <trip id="54" depart="54.00" from="-3372" to="-873" departLane="best" departSpeed="0" departPos="0"/>
    <trip id="55" depart="55.00" from="4516" to="3102" departLane="best" departSpeed="0" departPos="0"/>
    <trip id="56" depart="56.00" from="-3366" to="2169" departLane="best" departSpeed="0" departPos="0"/>
    <trip id="57" depart="57.00" from="-1000" to="-3503" departLane="best" departSpeed="0" departPos="0"/>
    <trip id="58" depart="58.00" from="2650" to="-2331" departLane="best" departSpeed="0" departPos="0"/>
    <trip id="59" depart="59.00" from="3055" to="3590" departLane="best" departSpeed="0" departPos="0"/>
    <trip id="60" depart="60.00" from="3195" to="-1755" departLane="best" departSpeed="0" departPos="0"/>
    <trip id="61" depart="61.00" from="-4476" to="2612" departLane="best" departSpeed="0" departPos="0"/>
    <trip id="62" depart="62.00" from="-4873" to="-3096" departLane="best" departSpeed="0" departPos="0"/>
    <trip id="63" depart="63.00" from="-3060" to="4527" departLane="best" departSpeed="0" departPos="0"/>
    <trip id="64" depart="64.00" from="-4609" to="4298" departLane="best" departSpeed="0" departPos="0"/>
    <trip id="65" depart="65.00" from="3920" to="3507" departLane="best" departSpeed="0" departPos="0"/>
    <trip id="66" depart="66.00" from="-4741" to="-3162" departLane="best" departSpeed="0" departPos="0"/>
    <trip id="67" depart="67.00" from="-2899" to="3205" departLane="best" departSpeed="0" departPos="0"/>
    <trip id="68" depart="68.00" from="-4479" to="-2633" departLane="best" departSpeed="0" departPos="0"/>
    <trip id="69" depart="69.00" from="-4479" to="4873" departLane="best" departSpeed="0" departPos="0"/>
    <trip id="70" depart="70.00" from="3205" to="5074" departLane="best" departSpeed="0" departPos="0"/>
    <trip id="71" depart="71.00" from="-3587" to="3103" departLane="best" departSpeed="0" departPos="0"/>
    <trip id="72" depart="72.00" from="-4718" to="-214" departLane="best" departSpeed="0" departPos="0"/>
    <trip id="73" depart="73.00" from="-4330" to="2232" departLane="best" departSpeed="0" departPos="0"/>
    <trip id="74" depart="74.00" from="1725" to="3663" departLane="best" departSpeed="0" departPos="0"/>
    <trip id="75" depart="75.00" from="-2138" to="3095" departLane="best" departSpeed="0" departPos="0"/>
    <trip id="76" depart="76.00" from="-3372" to="3102" departLane="best" departSpeed="0" departPos="0"/>
    <trip id="77" depart="77.00" from="-4493" to="-4890" departLane="best" departSpeed="0" departPos="0"/>
    <trip id="78" depart="78.00" from="-1972" to="5178" departLane="best" departSpeed="0" departPos="0"/>
    <trip id="79" depart="79.00" from="2220" to="5178" departLane="best" departSpeed="0" departPos="0"/>
    <trip id="80" depart="80.00" from="-4527" to="338" departLane="best" departSpeed="0" departPos="0"/>
    <trip id="81" depart="81.00" from="-3146" to="4527" departLane="best" departSpeed="0" departPos="0"/>
    <trip id="82" depart="82.00" from="-2502" to="4279" departLane="best" departSpeed="0" departPos="0"/>
    <trip id="83" depart="83.00" from="199" to="-3359" departLane="best" departSpeed="0" departPos="0"/>
    <trip id="84" depart="84.00" from="-190" to="3368" departLane="best" departSpeed="0" departPos="0"/>
    <trip id="85" depart="85.00" from="-5064" to="1148" departLane="best" departSpeed="0" departPos="0"/>
    <trip id="86" depart="86.00" from="2283" to="-4267" departLane="best" departSpeed="0" departPos="0"/>
    <trip id="87" depart="87.00" from="1986" to="-2138" departLane="best" departSpeed="0" departPos="0"/>
    <trip id="88" depart="88.00" from="3501" to="2284" departLane="best" departSpeed="0" departPos="0"/>
    <trip id="89" depart="89.00" from="-4718" to="1209" departLane="best" departSpeed="0" departPos="0"/>
    <trip id="90" depart="90.00" from="-2372" to="-1595" departLane="best" departSpeed="0" departPos="0"/>
    <trip id="91" depart="91.00" from="2623" to="-2937" departLane="best" departSpeed="0" departPos="0"/>
    <trip id="92" depart="92.00" from="2243" to="5064" departLane="best" departSpeed="0" departPos="0"/>
    <trip id="93" depart="93.00" from="-2502" to="-2662" departLane="best" departSpeed="0" departPos="0"/>
    <trip id="94" depart="94.00" from="-2343" to="-1758" departLane="best" departSpeed="0" departPos="0"/>
    <trip id="95" depart="95.00" from="1956" to="5053" departLane="best" departSpeed="0" departPos="0"/>
    <trip id="96" depart="96.00" from="-1934" to="5178" departLane="best" departSpeed="0" departPos="0"/>
    <trip id="97" depart="97.00" from="4265" to="-2396" departLane="best" departSpeed="0" departPos="0"/>
    <trip id="98" depart="98.00" from="-4873" to="-1934" departLane="best" departSpeed="0" departPos="0"/>
    <trip id="99" depart="99.00" from="-3507" to="3205" departLane="best" departSpeed="0" departPos="0"/>
    <trip id="100" depart="100.00" from="2331" to="2502" departLane="best" departSpeed="0" departPos="0"/>
    <trip id="101" depart="101.00" from="-5178" to="5053" departLane="best" departSpeed="0" departPos="0"/>
    <trip id="102" depart="102.00" from="-4527" to="3220" departLane="best" departSpeed="0" departPos="0"/>
    <trip id="103" depart="103.00" from="-2273" to="2182" departLane="best" departSpeed="0" departPos="0"/>
    <trip id="104" depart="104.00" from="2149" to="1946" departLane="best" departSpeed="0" departPos="0"/>
    <trip id="105" depart="105.00" from="-3162" to="4479" departLane="best" departSpeed="0" departPos="0"/>
    <trip id="106" depart="106.00" from="-3193" to="4173" departLane="best" departSpeed="0" departPos="0"/>
    <trip id="107" depart="107.00" from="-4479" to="5055" departLane="best" departSpeed="0" departPos="0"/>
    <trip id="108" depart="108.00" from="-5178" to="2151" departLane="best" departSpeed="0" departPos="0"/>
    <trip id="109" depart="109.00" from="-4609" to="-3940" departLane="best" departSpeed="0" departPos="0"/>
    <trip id="110" depart="110.00" from="2428" to="-1474" departLane="best" departSpeed="0" departPos="0"/>
    <trip id="111" depart="111.00" from="2273" to="3238" departLane="best" departSpeed="0" departPos="0"/>
    <trip id="112" depart="112.00" from="3503" to="1209" departLane="best" departSpeed="0" departPos="0"/>
    <trip id="113" depart="113.00" from="-5059" to="1474" departLane="best" departSpeed="0" departPos="0"/>
    <trip id="114" depart="114.00" from="-4718" to="58" departLane="best" departSpeed="0" departPos="0"/>
    <trip id="115" depart="115.00" from="172" to="4527" departLane="best" departSpeed="0" departPos="0"/>
    <trip id="116" depart="116.00" from="3200" to="4531" departLane="best" departSpeed="0" departPos="0"/>
    <trip id="117" depart="117.00" from="-4265" to="-3936" departLane="best" departSpeed="0" departPos="0"/>
    <trip id="118" depart="118.00" from="3501" to="-1257" departLane="best" departSpeed="0" departPos="0"/>
    <trip id="119" depart="119.00" from="4279" to="92" departLane="best" departSpeed="0" departPos="0"/>
    <trip id="120" depart="120.00" from="1974" to="4863" departLane="best" departSpeed="0" departPos="0"/>
    <trip id="121" depart="121.00" from="-334" to="-4921" departLane="best" departSpeed="0" departPos="0"/>
    <trip id="122" depart="122.00" from="-2214" to="1994" departLane="best" departSpeed="0" departPos="0"/>
    <trip id="123" depart="123.00" from="3498" to="2492" departLane="best" departSpeed="0" departPos="0"/>
    <trip id="124" depart="124.00" from="-2937" to="4889" departLane="best" departSpeed="0" departPos="0"/>
    <trip id="125" depart="125.00" from="-3092" to="-3153" departLane="best" departSpeed="0" departPos="0"/>
    <trip id="126" depart="126.00" from="-2273" to="1211" departLane="best" departSpeed="0" departPos="0"/>
    <trip id="127" depart="127.00" from="-3068" to="4514" departLane="best" departSpeed="0" departPos="0"/>
    <trip id="128" depart="128.00" from="-4747" to="-3076" departLane="best" departSpeed="0" departPos="0"/>
    <trip id="129" depart="129.00" from="854" to="-3660" departLane="best" departSpeed="0" departPos="0"/>
    <trip id="130" depart="130.00" from="-4531" to="2322" departLane="best" departSpeed="0" departPos="0"/>
    <trip id="131" depart="131.00" from="-3341" to="3549" departLane="best" departSpeed="0" departPos="0"/>
    <trip id="132" depart="132.00" from="-5064" to="4890" departLane="best" departSpeed="0" departPos="0"/>
    <trip id="133" depart="133.00" from="3096" to="-3155" departLane="best" departSpeed="0" departPos="0"/>
    <trip id="134" depart="134.00" from="-3660" to="-199" departLane="best" departSpeed="0" departPos="0"/>
    <trip id="135" depart="135.00" from="-3934" to="4179" departLane="best" departSpeed="0" departPos="0"/>
    <trip id="136" depart="136.00" from="-1205" to="4718" departLane="best" departSpeed="0" departPos="0"/>
    <trip id="137" depart="137.00" from="3076" to="4873" departLane="best" departSpeed="0" departPos="0"/>
    <trip id="138" depart="138.00" from="-3368" to="-873" departLane="best" departSpeed="0" departPos="0"/>
    <trip id="139" depart="139.00" from="-4479" to="-1951" departLane="best" departSpeed="0" departPos="0"/>
    <trip id="140" depart="140.00" from="-4853" to="-873" departLane="best" departSpeed="0" departPos="0"/>
    <trip id="141" depart="141.00" from="462" to="4531" departLane="best" departSpeed="0" departPos="0"/>
    <trip id="142" depart="142.00" from="-2228" to="4747" departLane="best" departSpeed="0" departPos="0"/>
    <trip id="143" depart="143.00" from="2468" to="4598" departLane="best" departSpeed="0" departPos="0"/>
    <trip id="144" depart="144.00" from="-5055" to="1474" departLane="best" departSpeed="0" departPos="0"/>
    <trip id="145" depart="145.00" from="3948" to="-1755" departLane="best" departSpeed="0" departPos="0"/>
    <trip id="146" depart="146.00" from="199" to="4527" departLane="best" departSpeed="0" departPos="0"/>
    <trip id="147" depart="147.00" from="-4479" to="-1940" departLane="best" departSpeed="0" departPos="0"/>
    <trip id="148" depart="148.00" from="-4493" to="3076" departLane="best" departSpeed="0" departPos="0"/>
    <trip id="149" depart="149.00" from="4297" to="-1737" departLane="best" departSpeed="0" departPos="0"/>
    <trip id="150" depart="150.00" from="3055" to="2440" departLane="best" departSpeed="0" departPos="0"/>
    <trip id="151" depart="151.00" from="1606" to="-1209" departLane="best" departSpeed="0" departPos="0"/>
    <trip id="152" depart="152.00" from="-3663" to="-1026" departLane="best" departSpeed="0" departPos="0"/>
    <trip id="153" depart="153.00" from="-3939" to="3368" departLane="best" departSpeed="0" departPos="0"/>
    <trip id="154" depart="154.00" from="2435" to="2243" departLane="best" departSpeed="0" departPos="0"/>
    <trip id="155" depart="155.00" from="-2271" to="2480" departLane="best" departSpeed="0" departPos="0"/>
    <trip id="156" depart="156.00" from="-4531" to="-3341" departLane="best" departSpeed="0" departPos="0"/>
    <trip id="157" depart="157.00" from="-45" to="-3498" departLane="best" departSpeed="0" departPos="0"/>
    <trip id="158" depart="158.00" from="-4334" to="2387" departLane="best" departSpeed="0" departPos="0"/>
    <trip id="159" depart="159.00" from="-1034" to="-3675" departLane="best" departSpeed="0" departPos="0"/>
    <trip id="160" depart="160.00" from="-2502" to="-2173" departLane="best" departSpeed="0" departPos="0"/>
    <trip id="161" depart="161.00" from="-3093" to="-4265" departLane="best" departSpeed="0" departPos="0"/>
    <trip id="162" depart="162.00" from="-1034" to="3531" departLane="best" departSpeed="0" departPos="0"/>
    <trip id="163" depart="163.00" from="3100" to="4319" departLane="best" departSpeed="0" departPos="0"/>
    <trip id="164" depart="164.00" from="4279" to="4534" departLane="best" departSpeed="0" departPos="0"/>
    <trip id="165" depart="165.00" from="3938" to="-4476" departLane="best" departSpeed="0" departPos="0"/>
    <trip id="166" depart="166.00" from="1739" to="-2372" departLane="best" departSpeed="0" departPos="0"/>
    <trip id="167" depart="167.00" from="-4534" to="5053" departLane="best" departSpeed="0" departPos="0"/>
    <trip id="168" depart="168.00" from="-3368" to="-3343" departLane="best" departSpeed="0" departPos="0"/>
    <trip id="169" depart="169.00" from="3916" to="1259" departLane="best" departSpeed="0" departPos="0"/>
    <trip id="170" depart="170.00" from="-1960" to="4747" departLane="best" departSpeed="0" departPos="0"/>
    <trip id="171" depart="171.00" from="-3671" to="3366" departLane="best" departSpeed="0" departPos="0"/>
    <trip id="172" depart="172.00" from="-3059" to="1204" departLane="best" departSpeed="0" departPos="0"/>
    <trip id="173" depart="173.00" from="-2273" to="-4919" departLane="best" departSpeed="0" departPos="0"/>
    <trip id="174" depart="174.00" from="-3660" to="2372" departLane="best" departSpeed="0" departPos="0"/>
    <trip id="175" depart="175.00" from="-4319" to="2358" departLane="best" departSpeed="0" departPos="0"/>
    <trip id="176" depart="176.00" from="4599" to="1755" departLane="best" departSpeed="0" departPos="0"/>
    <trip id="177" depart="177.00" from="-4531" to="-3501" departLane="best" departSpeed="0" departPos="0"/>
    <trip id="178" depart="178.00" from="-5064" to="-3920" departLane="best" departSpeed="0" departPos="0"/>
    <trip id="179" depart="179.00" from="3101" to="-4863" departLane="best" departSpeed="0" departPos="0"/>
    <trip id="180" depart="180.00" from="-4716" to="-338" departLane="best" departSpeed="0" departPos="0"/>
    <trip id="181" depart="181.00" from="-4276" to="199" departLane="best" departSpeed="0" departPos="0"/>
    <trip id="182" depart="182.00" from="5070" to="4358" departLane="best" departSpeed="0" departPos="0"/>
    <trip id="183" depart="183.00" from="-3068" to="2664" departLane="best" departSpeed="0" departPos="0"/>
    <trip id="184" depart="184.00" from="3938" to="-2220" departLane="best" departSpeed="0" departPos="0"/>
    <trip id="185" depart="185.00" from="-4527" to="5064" departLane="best" departSpeed="0" departPos="0"/>
    <trip id="186" depart="186.00" from="4334" to="4493" departLane="best" departSpeed="0" departPos="0"/>
    <trip id="187" depart="187.00" from="-1775" to="-3155" departLane="best" departSpeed="0" departPos="0"/>
    <trip id="188" depart="188.00" from="-4479" to="4267" departLane="best" departSpeed="0" departPos="0"/>
    <trip id="189" depart="189.00" from="-3531" to="-1474" departLane="best" departSpeed="0" departPos="0"/>
    <trip id="190" depart="190.00" from="-5074" to="4358" departLane="best" departSpeed="0" departPos="0"/>
    <trip id="191" depart="191.00" from="-2344" to="3934" departLane="best" departSpeed="0" departPos="0"/>
    <trip id="192" depart="192.00" from="-1474" to="-2609" departLane="best" departSpeed="0" departPos="0"/>
    <trip id="193" depart="193.00" from="-1469" to="5055" departLane="best" departSpeed="0" departPos="0"/>
    <trip id="194" depart="194.00" from="-5053" to="844" departLane="best" departSpeed="0" departPos="0"/>
    <trip id="195" depart="195.00" from="-5074" to="-3146" departLane="best" departSpeed="0" departPos="0"/>
    <trip id="196" depart="196.00" from="-3808" to="3936" departLane="best" departSpeed="0" departPos="0"/>
    <trip id="197" depart="197.00" from="3366" to="-4276" departLane="best" departSpeed="0" departPos="0"/>
    <trip id="198" depart="198.00" from="-2128" to="-4863" departLane="best" departSpeed="0" departPos="0"/>
    <trip id="199" depart="199.00" from="-4873" to="5053" departLane="best" departSpeed="0" departPos="0"/>
    <trip id="200" depart="200.00" from="1154" to="4362" departLane="best" departSpeed="0" departPos="0"/>
    <trip id="201" depart="201.00" from="-5074" to="-3940" departLane="best" departSpeed="0" departPos="0"/>
    <trip id="202" depart="202.00" from="-3368" to="2402" departLane="best" departSpeed="0" departPos="0"/>
    <trip id="203" depart="203.00" from="-4493" to="3193" departLane="best" departSpeed="0" departPos="0"/>
    <trip id="204" depart="204.00" from="-3687" to="-1470" departLane="best" departSpeed="0" departPos="0"/>
    <trip id="205" depart="205.00" from="3498" to="-4514" departLane="best" departSpeed="0" departPos="0"/>
    <trip id="206" depart="206.00" from="-1758" to="2660" departLane="best" departSpeed="0" departPos="0"/>
    <trip id="207" depart="207.00" from="-3929" to="4298" departLane="best" departSpeed="0" departPos="0"/>
    <trip id="208" depart="208.00" from="-3934" to="-58" departLane="best" departSpeed="0" departPos="0"/>
    <trip id="209" depart="209.00" from="-68" to="2405" departLane="best" departSpeed="0" departPos="0"/>
    <trip id="210" depart="210.00" from="-3220" to="4919" departLane="best" departSpeed="0" departPos="0"/>
    <trip id="211" depart="211.00" from="-3687" to="-1722" departLane="best" departSpeed="0" departPos="0"/>
    <trip id="212" depart="212.00" from="-5074" to="4741" departLane="best" departSpeed="0" departPos="0"/>
    <trip id="213" depart="213.00" from="4316" to="2660" departLane="best" departSpeed="0" departPos="0"/>
    <trip id="214" depart="214.00" from="-3938" to="4316" departLane="best" departSpeed="0" departPos="0"/>
    <trip id="215" depart="215.00" from="991" to="3368" departLane="best" departSpeed="0" departPos="0"/>
    <trip id="216" depart="216.00" from="-5059" to="3806" departLane="best" departSpeed="0" departPos="0"/>
    <trip id="217" depart="217.00" from="-4536" to="3144" departLane="best" departSpeed="0" departPos="0"/>
    <trip id="218" depart="218.00" from="2440" to="2662" departLane="best" departSpeed="0" departPos="0"/>
    <trip id="219" depart="219.00" from="-4516" to="4873" departLane="best" departSpeed="0" departPos="0"/>
    <trip id="220" depart="220.00" from="-5178" to="-2128" departLane="best" departSpeed="0" departPos="0"/>
    <trip id="221" depart="221.00" from="-3368" to="2020" departLane="best" departSpeed="0" departPos="0"/>
    <trip id="222" depart="222.00" from="1747" to="3368" departLane="best" departSpeed="0" departPos="0"/>
    <trip id="223" depart="223.00" from="1722" to="3687" departLane="best" departSpeed="0" departPos="0"/>
    <trip id="224" depart="224.00" from="-4479" to="2662" departLane="best" departSpeed="0" departPos="0"/>
    <trip id="225" depart="225.00" from="-4873" to="2502" departLane="best" departSpeed="0" departPos="0"/>
    <trip id="226" depart="226.00" from="-3220" to="5074" departLane="best" departSpeed="0" departPos="0"/>
    <trip id="227" depart="227.00" from="2228" to="4531" departLane="best" departSpeed="0" departPos="0"/>
    <trip id="228" depart="228.00" from="-5053" to="190" departLane="best" departSpeed="0" departPos="0"/>
    <trip id="229" depart="229.00" from="-3368" to="-1204" departLane="best" departSpeed="0" departPos="0"/>
    <trip id="230" depart="230.00" from="-4873" to="4718" departLane="best" departSpeed="0" departPos="0"/>
    <trip id="231" depart="231.00" from="1737" to="1610" departLane="best" departSpeed="0" departPos="0"/>
    <trip id="232" depart="232.00" from="-5064" to="4527" departLane="best" departSpeed="0" departPos="0"/>
    <trip id="233" depart="233.00" from="-4514" to="4718" departLane="best" departSpeed="0" departPos="0"/>
    <trip id="234" depart="234.00" from="-3934" to="-831" departLane="best" departSpeed="0" departPos="0"/>
    <trip id="235" depart="235.00" from="-5178" to="-1755" departLane="best" departSpeed="0" departPos="0"/>
    <trip id="236" depart="236.00" from="4514" to="3665" departLane="best" departSpeed="0" departPos="0"/>
    <trip id="237" depart="237.00" from="-3507" to="2440" departLane="best" departSpeed="0" departPos="0"/>
    <trip id="238" depart="238.00" from="-3587" to="4479" departLane="best" departSpeed="0" departPos="0"/>
    <trip id="239" depart="239.00" from="2660" to="3372" departLane="best" departSpeed="0" departPos="0"/>
    <trip id="240" depart="240.00" from="2468" to="3929" departLane="best" departSpeed="0" departPos="0"/>
    <trip id="241" depart="241.00" from="-852" to="3368" departLane="best" departSpeed="0" departPos="0"/>
    <trip id="242" depart="242.00" from="1470" to="2492" departLane="best" departSpeed="0" departPos="0"/>
    <trip id="243" depart="243.00" from="-4362" to="3922" departLane="best" departSpeed="0" departPos="0"/>
    <trip id="244" depart="244.00" from="-5059" to="-3930" departLane="best" departSpeed="0" departPos="0"/>
    <trip id="245" depart="245.00" from="-3665" to="-4534" departLane="best" departSpeed="0" departPos="0"/>
    <trip id="246" depart="246.00" from="1610" to="3200" departLane="best" departSpeed="0" departPos="0"/>
    <trip id="247" depart="247.00" from="-3055" to="2214" departLane="best" departSpeed="0" departPos="0"/>
    <trip id="248" depart="248.00" from="-2502" to="3236" departLane="best" departSpeed="0" departPos="0"/>
    <trip id="249" depart="249.00" from="444" to="4276" departLane="best" departSpeed="0" departPos="0"/>
    <trip id="250" depart="250.00" from="68" to="4362" departLane="best" departSpeed="0" departPos="0"/>
    <trip id="251" depart="251.00" from="4863" to="4316" departLane="best" departSpeed="0" departPos="0"/>
    <trip id="252" depart="252.00" from="-4741" to="-2612" departLane="best" departSpeed="0" departPos="0"/>
    <trip id="253" depart="253.00" from="-5070" to="5055" departLane="best" departSpeed="0" departPos="0"/>
    <trip id="254" depart="254.00" from="-5064" to="2660" departLane="best" departSpeed="0" departPos="0"/>
    <trip id="255" depart="255.00" from="-5178" to="5053" departLane="best" departSpeed="0" departPos="0"/>
    <trip id="256" depart="256.00" from="-2440" to="5178" departLane="best" departSpeed="0" departPos="0"/>
    <trip id="257" depart="257.00" from="3940" to="-1918" departLane="best" departSpeed="0" departPos="0"/>
    <trip id="258" depart="258.00" from="2173" to="5059" departLane="best" departSpeed="0" departPos="0"/>
    <trip id="259" depart="259.00" from="3660" to="-2344" departLane="best" departSpeed="0" departPos="0"/>
    <trip id="260" depart="260.00" from="45" to="5178" departLane="best" departSpeed="0" departPos="0"/>
    <trip id="261" depart="261.00" from="43" to="4716" departLane="best" departSpeed="0" departPos="0"/>
    <trip id="262" depart="262.00" from="4514" to="4527" departLane="best" departSpeed="0" departPos="0"/>
    <trip id="263" depart="263.00" from="-4718" to="-2440" departLane="best" departSpeed="0" departPos="0"/>
    <trip id="264" depart="264.00" from="3236" to="4747" departLane="best" departSpeed="0" departPos="0"/>
    <trip id="265" depart="265.00" from="-2372" to="-2192" departLane="best" departSpeed="0" departPos="0"/>
    <trip id="266" depart="266.00" from="2322" to="5074" departLane="best" departSpeed="0" departPos="0"/>
    <trip id="267" depart="267.00" from="3916" to="3220" departLane="best" departSpeed="0" departPos="0"/>
    <trip id="268" depart="268.00" from="-3372" to="-1994" departLane="best" departSpeed="0" departPos="0"/>