<?xml version="1.0" encoding="utf-8"?>
<routes>
 <vType color="green" id="taxi" personCapacity="2" vClass="taxi">
  <param key="has.taxi.device" value="true"/>
  <param key="device.taxi.pickUpDuration" value="0"/>
  <param key="device.taxi.dropOffDuration" value="10"/>
  <param key="device.taxi.parking" value="true"/>
 </vType>
 <trip depart="0" from="-14571550#0" id="t96" to="94088835" type="taxi"/>
 <trip depart="0" from="-101521565" id="t95" to="122529102#1" type="taxi"/>
 <trip depart="0" from="-61367459" id="t94" to="63322102#1" type="taxi"/>
 <trip depart="0" from="38674848" id="t93" to="26187880#0" type="taxi"/>
 <trip depart="0" from="-34776024" id="t92" to="25976329#0" type="taxi"/>
 <trip depart="0" from="-30786474" id="t91" to="-61997814#0" type="taxi"/>
 <trip depart="0" from="-10426204#1" id="t90" to="-84016136" type="taxi"/>
 <trip depart="0" from="85044863#0" id="t89" to="61279428" type="taxi"/>
 <trip depart="0" from="-96596623#0" id="t88" to="314252679" type="taxi"/>
 <trip depart="0" from="62057889" id="t87" to="117654824#0" type="taxi"/>
 <trip depart="0" from="136721667" id="t86" to="25620728" type="taxi"/>
 <trip depart="0" from="35061798" id="t85" to="126449221#0" type="taxi"/>
 <trip depart="0" from="24031456#6" id="t84" to="10557851" type="taxi"/>
 <trip depart="0" from="-10426219" id="t83" to="-122529094#7" type="taxi"/>
 <trip depart="0" from="30326722" id="t82" to="-314256365#0" type="taxi"/>
 <trip depart="0" from="331361889" id="t81" to="117656065#0" type="taxi"/>
 <trip depart="0" from="10558745" id="t80" to="-50738089#0" type="taxi"/>
 <trip depart="0" from="26187880#0" id="t79" to="-314424813" type="taxi"/>
 <trip depart="0" from="60104143" id="t78" to="84639229#1" type="taxi"/>
 <trip depart="0" from="-4485415" id="t77" to="-126449297#0" type="taxi"/>
 <trip depart="0" from="25153048" id="t76" to="118155460" type="taxi"/>
 <trip depart="0" from="116049788#1" id="t75" to="-300060712" type="taxi"/>
 <trip depart="0" from="42928295" id="t74" to="-126449297#1" type="taxi"/>
 <trip depart="0" from="707213263#0" id="t73" to="122529096#5" type="taxi"/>
 <trip depart="0" from="208548182" id="t72" to="301503168#1" type="taxi"/>
 <trip depart="0" from="-8064520" id="t71" to="132047190" type="taxi"/>
 <trip depart="0" from="243759680" id="t70" to="-122529099" type="taxi"/>
 <trip depart="0" from="-26367881" id="t69" to="24477199" type="taxi"/>
 <trip depart="0" from="4680630" id="t68" to="84643987" type="taxi"/>
 <trip depart="0" from="-328813517" id="t67" to="20433136#0" type="taxi"/>
 <trip depart="0" from="87397777" id="t66" to="51856551#0" type="taxi"/>
 <trip depart="0" from="-16626712" id="t65" to="-61367434" type="taxi"/>
 <trip depart="0" from="61495635" id="t64" to="5234280#0" type="taxi"/>
 <trip depart="0" from="-63116648#0" id="t63" to="5091199" type="taxi"/>
 <trip depart="0" from="-118155452#0" id="t62" to="62057889" type="taxi"/>
 <trip depart="0" from="61371685#1" id="t61" to="-136721671" type="taxi"/>
 <trip depart="0" from="233171094#0" id="t60" to="-4353778#3" type="taxi"/>
 <trip depart="0" from="-234540368" id="t59" to="34733054#3" type="taxi"/>
 <trip depart="0" from="28918381#1" id="t58" to="25153030" type="taxi"/>
 <trip depart="0" from="40801556" id="t57" to="-211695402" type="taxi"/>
 <trip depart="0" from="-5095178#1" id="t56" to="132817973#0" type="taxi"/>
 <trip depart="0" from="10425893#1" id="t55" to="-331540404#0" type="taxi"/>
 <trip depart="0" from="169313833#1" id="t54" to="117099153" type="taxi"/>
 <trip depart="0" from="58507979#0" id="t53" to="17265675" type="taxi"/>
 <trip depart="0" from="-117623507" id="t52" to="26187879" type="taxi"/>
 <trip depart="0" from="169313833#1" id="t51" to="-61982177#0" type="taxi"/>
 <trip depart="0" from="-77608974#0" id="t50" to="-58603104" type="taxi"/>
 <trip depart="0" from="-61984348" id="t49" to="-61984348" type="taxi"/>
 <trip depart="0" from="5234378" id="t48" to="25153030" type="taxi"/>
 <trip depart="0" from="-32732359" id="t47" to="-369181504" type="taxi"/>
 <trip depart="0" from="-86527689" id="t46" to="-38336405#2" type="taxi"/>
 <trip depart="0" from="25767798#1" id="t45" to="286340278" type="taxi"/>
 <trip depart="0" from="-117649850#1" id="t44" to="-211695402" type="taxi"/>
 <trip depart="0" from="136864086" id="t43" to="-122529098#1" type="taxi"/>
 <trip depart="0" from="-34149612#1" id="t42" to="-138350780#1" type="taxi"/>
 <trip depart="0" from="96596615#1" id="t41" to="-18383726" type="taxi"/>
 <trip depart="0" from="43263108" id="t40" to="122529114#2" type="taxi"/>
 <trip depart="0" from="-103302383#2" id="t39" to="-416539515" type="taxi"/>
 <trip depart="0" from="-84639212" id="t38" to="23960467#0" type="taxi"/>
 <trip depart="0" from="-121411754" id="t37" to="30016021" type="taxi"/>
 <trip depart="0" from="26187879" id="t36" to="-57726375#1" type="taxi"/>
 <trip depart="0" from="-193640980" id="t35" to="-84016136" type="taxi"/>
 <trip depart="0" from="-39071853" id="t34" to="18648957#0" type="taxi"/>
 <trip depart="0" from="-83163114#0" id="t33" to="-30140142" type="taxi"/>
 <trip depart="0" from="4244655" id="t32" to="4680630" type="taxi"/>
 <trip depart="0" from="-61367432" id="t31" to="34776023#1" type="taxi"/>
 <trip depart="0" from="300981184#0" id="t30" to="97097111#1" type="taxi"/>
 <trip depart="0" from="-118864084" id="t29" to="-61495637" type="taxi"/>
 <trip depart="0" from="24398612" id="t28" to="102282710" type="taxi"/>
 <trip depart="0" from="-27404368#1" id="t27" to="4233644#0" type="taxi"/>
 <trip depart="0" from="118155450" id="t26" to="84639229#1" type="taxi"/>
 <trip depart="0" from="-224710093#0" id="t25" to="10357193" type="taxi"/>
 <trip depart="0" from="-8102367" id="t24" to="35873188" type="taxi"/>
 <trip depart="0" from="25767797#0" id="t23" to="-81646465#1" type="taxi"/>
 <trip depart="0" from="-328813517" id="t22" to="10425858" type="taxi"/>
 <trip depart="0" from="-86527656" id="t21" to="-314405014" type="taxi"/>
 <trip depart="0" from="83488895#1" id="t20" to="-154150880#0" type="taxi"/>
 <trip depart="0" from="-22604699#0" id="t19" to="-38336405#3" type="taxi"/>
 <trip depart="0" from="-75567703#0" id="t18" to="-212694590" type="taxi"/>
 <trip depart="0" from="-206551701" id="t17" to="10557655" type="taxi"/>
 <trip depart="0" from="463124698" id="t16" to="24405147" type="taxi"/>
 <trip depart="0" from="116049444#0" id="t15" to="116049439#0" type="taxi"/>
 <trip depart="0" from="-22604699#0" id="t14" to="117624637#0" type="taxi"/>
 <trip depart="0" from="34776023#1" id="t13" to="24407716" type="taxi"/>
 <trip depart="0" from="26349564#0" id="t12" to="25620728" type="taxi"/>
 <trip depart="0" from="-14571550#1" id="t11" to="-10425883" type="taxi"/>
 <trip depart="0" from="-1075684663#0" id="t10" to="-42792917#1" type="taxi"/>
 <trip depart="0" from="169313833#0" id="t9" to="213132380" type="taxi"/>
 <trip depart="0" from="-79690674#0" id="t8" to="30690511" type="taxi"/>
 <trip depart="0" from="-76346745" id="t7" to="61371680#1" type="taxi"/>
 <trip depart="0" from="10557851" id="t6" to="190981790#0" type="taxi"/>
 <trip depart="0" from="136721670#1" id="t5" to="34733054#3" type="taxi"/>
 <trip depart="0" from="-58603104" id="t4" to="47089824" type="taxi"/>
 <trip depart="0" from="136721683" id="t3" to="4227191" type="taxi"/>
 <trip depart="0" from="58423646" id="t2" to="75869950" type="taxi"/>
 <trip depart="0" from="-15242127#1" id="t1" to="5234761#1" type="taxi"/>
 <trip depart="0" from="-22604699#0" id="t0" to="-83163097#0" type="taxi"/>
 <trip depart="4.0" departLane="best" departSpeed="max" from="-38807023" id="rs_c000_i000_48" to="104147692"/>
 <trip depart="7.0" departLane="best" departSpeed="max" from="5231759" id="rs_c000_i000_81" to="29970080#0"/>
 <trip depart="8.0" departLane="best" departSpeed="max" from="-52673136" id="rs_c000_i000_105" to="24429380-AddedOffRampEdge"/>
 <person depart="18.0" id="p0">
  <ride from="26959985" lines="taxi" parkingArea="pa362987791#0" to="362987791#0"/>
 </person>
 <person depart="20.0" id="p1">
  <ride from="-61367432" lines="taxi" parkingArea="pa104147692" to="104147692"/>
 </person>
 <person depart="23.0" id="p2">
  <ride from="-122529098#1" lines="taxi" parkingArea="pa26187757#1" to="26187757#1"/>
 </person>
 <trip depart="25.0" departLane="best" departSpeed="max" from="56253839" id="rs_c000_i000_303" to="25980639"/>
 <trip depart="26.0" departLane="best" departSpeed="max" from="43263108" id="rs_c001_i000_42" to="30471451"/>
 <trip depart="27.0" departLane="best" departSpeed="max" from="-74011129#0" id="rs_c000_i001_35" to="25980639"/>
 <trip depart="33.0" departLane="best" departSpeed="max" from="290255300" id="rs_c000_i000_384" to="58423646"/>
 <person depart="38.0" id="p3">
  <ride from="-5067354#1" lines="taxi" parkingArea="pa34760663" to="34760663"/>
 </person>
 <person depart="43.0" id="p4">
  <ride from="-10426204#1" lines="taxi" parkingArea="pa35062429#0" to="35062429#0"/>
 </person>
 <trip depart="43.0" departLane="best" departSpeed="max" from="-95212556" id="rs_c000_i000_487" to="24428921"/>
 <trip depart="47.0" departLane="best" departSpeed="max" from="-122529096#6" id="rs_c000_i000_529" to="26187755#0"/>
 <person depart="49.0" id="p5">
  <ride from="-286243203#1" lines="taxi" parkingArea="pa24405134" to="24405134"/>
 </person>
 <trip depart="53.0" departLane="best" departSpeed="max" from="30326559" id="rs_c000_i000_612" to="34760663"/>
 <trip depart="56.0" departLane="best" departSpeed="max" from="4273624" id="rs_c000_i000_657" to="1081179231"/>
 <trip depart="57.0" departLane="best" departSpeed="max" from="61496433" id="rs_c000_i001_79" to="28230831"/>
 <trip depart="60.0" departLane="best" departSpeed="max" from="-15242127#1" id="rs_c000_i000_711" to="1081179231"/>
 <person depart="64.0" id="p6">
  <ride from="-4680630" lines="taxi" parkingArea="pa24424238#0" to="24424238#0"/>
 </person>
 <trip depart="67.0" departLane="best" departSpeed="max" from="-83488868" id="rs_c001_i000_149" to="104147692"/>
 <trip depart="70.0" departLane="best" departSpeed="max" from="-32016029#2" id="rs_c001_i000_156_part0" to="-26341966#1"/>
 <trip depart="72.0" departLane="best" departSpeed="max" from="-14573382#2" id="rs_c000_i000_843" to="35062429#0"/>
 <trip depart="76.0" departLane="best" departSpeed="max" from="116049443#1" id="rs_c000_i000_504_part1" to="26187755#0"/>
 <trip depart="76.0" departLane="best" departSpeed="max" from="-10425858" id="rs_c000_i000_882" to="139124541#0"/>
 <trip depart="78.0" departLane="best" departSpeed="max" from="87397777" id="rs_c000_i000_896" to="362987791#0"/>
 <person depart="80.0" id="p7">
  <ride from="96915239#1" lines="taxi" parkingArea="pa58423646" to="58423646"/>
 </person>
 <trip depart="81.0" departLane="best" departSpeed="max" from="51340803#1" id="rs_c000_i000_920" to="139124541#0"/>
 <trip depart="85.0" departLane="best" departSpeed="max" from="62789947#2" id="rs_c000_i000_975" to="25980639"/>
 <trip depart="86.0" departLane="best" departSpeed="max" from="83163114#1" id="rs_c000_i000_990" to="39139679"/>
 <trip depart="89.0" departLane="best" departSpeed="max" from="26369585" id="rs_c001_i000_194" to="-61997814#0"/>
 <person depart="91.0" id="p8">
  <ride from="51340803#1" lines="taxi" parkingArea="pa35062429#0" to="35062429#0"/>
 </person>
 <person depart="91.0" id="p9">
  <ride from="183247520" lines="taxi" parkingArea="pa35062429#0" to="35062429#0"/>
 </person>
 <trip depart="100.0" departLane="best" departSpeed="max" from="-328813517" id="rs_c001_i000_213" to="104147692"/>
 <trip depart="105.0" departLane="best" departSpeed="max" from="-211208696#0" id="rs_c001_i000_103" to="234899446"/>
 <trip depart="105.0" departLane="best" departSpeed="max" from="-301127377" id="rs_c000_i000_1200" to="26187757#1"/>
 <trip depart="127.0" departLane="best" departSpeed="max" from="136864086" id="rs_c000_i000_1442" to="58423646"/>
 <trip depart="129.0" departLane="best" departSpeed="max" from="-39316011#1" id="rs_c000_i000_1471" to="286340282"/>
 <trip depart="136.0" departLane="best" departSpeed="max" from="10559201" id="rs_c000_i001_200" to="35062429#0"/>
 <trip depart="142.0" departLane="best" departSpeed="max" from="26085515#5" id="rs_c000_i000_1609" to="58423646"/>
 <trip depart="143.0" departLane="best" departSpeed="max" from="4492786" id="rs_c000_i000_1621" to="102332984#0"/>
 <trip depart="144.0" departLane="best" departSpeed="max" from="-51722315#0" id="rs_c001_i000_293" to="117654824#0"/>
 <trip depart="145.0" departLane="best" departSpeed="max" from="285621683" id="rs_c000_i000_1638" to="138914231#0"/>
 <trip depart="146.0" departLane="best" departSpeed="max" from="-328040089" id="rs_c000_i000_1649" to="5091199"/>
 <trip depart="147.85" departLane="best" departSpeed="max" from="35062276" id="rs_c001_i000_25" to="234899446"/>
 <person depart="148.0" id="p10">
  <ride from="137996244#0" lines="taxi" parkingArea="pa24428921" to="24428921"/>
 </person>
 <person depart="149.0" id="p11">
  <ride from="30529010#1" lines="taxi" parkingArea="pa116049788#1" to="116049788#1"/>
 </person>
 <trip depart="151.0" departLane="best" departSpeed="max" from="-211120148" id="rs_c000_i001_114" to="35062429#0"/>
 <trip depart="156.0" departLane="best" departSpeed="max" from="-28840232#0" id="rs_c000_i000_1756" to="58423646"/>
 <trip depart="164.0" departLane="best" departSpeed="max" from="-335084841#0" id="rs_c000_i002_40" to="102332984#0"/>
 <trip depart="165.0" departLane="best" departSpeed="max" from="-14433921#1" id="rs_c000_i000_1859" to="38455846"/>
 <trip depart="167.0" departLane="best" departSpeed="max" from="-5234280#0" id="rs_c000_i000_1879" to="38455846"/>
 <trip depart="171.0" departLane="best" departSpeed="max" from="462046218" id="rs_c001_i000_340" to="38455846"/>
 <trip depart="173.0" departLane="best" departSpeed="max" from="-79690674#0" id="rs_c000_i000_895" to="34760663"/>
 <trip depart="177.0" departLane="best" departSpeed="max" from="51856551#0" id="rs_c001_i000_348" to="30471451"/>
 <trip depart="181.0" departLane="best" departSpeed="max" from="118869284#0" id="rs_c000_i000_2018" to="26187755#0"/>
 <trip depart="187.0" departLane="best" departSpeed="max" from="14571550#1" id="rs_c000_i002_46" to="38455846"/>
 <person depart="193.0" id="p12">
  <ride from="-211208696#0" lines="taxi" parkingArea="pa234899446" to="234899446"/>
 </person>
 <trip depart="197.0" departLane="best" departSpeed="max" from="-87397780" id="rs_c000_i001_293" to="1081179231"/>
 <trip depart="213.0" departLane="best" departSpeed="max" from="-42792917#0" id="rs_c000_i000_2348" to="24405134"/>
 <trip depart="214.0" departLane="best" departSpeed="max" from="-313693701" id="rs_c000_i000_2368" to="39139679"/>
 <trip depart="214.0" departLane="best" departSpeed="max" from="-369150317#0" id="rs_c000_i000_2371" to="58423646"/>
 <trip depart="217.0" departLane="best" departSpeed="max" from="10558745" id="rs_c000_i000_2397" to="104147692"/>
 <trip depart="218.0" departLane="best" departSpeed="max" from="4680630" id="rs_c000_i000_2403" to="104147692"/>
 <trip depart="221.0" departLane="best" departSpeed="max" from="-8058345" id="rs_c001_i000_433" to="362987791#0"/>
 <trip depart="224.0" departLane="best" departSpeed="max" from="-26127182#2" id="rs_c000_i000_2475" to="26187755#0"/>
 <trip depart="234.0" departLane="best" departSpeed="max" from="-61371685#0" id="rs_c000_i000_2581" to="104147692"/>
 <trip depart="238.0" departLane="best" departSpeed="max" from="117099147#0" id="rs_c000_i000_2613" to="58423646"/>
 <trip depart="242.0" departLane="best" departSpeed="max" from="8064520" id="rs_c000_i000_2658" to="30471451"/>
 <person depart="255.0" id="p13">
  <ride from="34149613" lines="taxi" parkingArea="pa26187757#1" to="26187757#1"/>
 </person>
 <person depart="257.0" id="p14">
  <ride from="-79690674#0" lines="taxi" parkingArea="pa30471451" to="30471451"/>
 </person>
 <trip depart="259.0" departLane="best" departSpeed="max" from="-212694590" id="rs_c000_i000_2852" to="144246396#1"/>
 <trip depart="261.0" departLane="best" departSpeed="max" from="125351110" id="rs_c000_i000_2871" to="144246396#1"/>
 <trip depart="263.0" departLane="best" departSpeed="max" from="301503168#1" id="rs_c000_i000_2206" to="35061798"/>
 <trip depart="266.0" departLane="best" departSpeed="max" from="-212694591" id="rs_c000_i000_2921" to="26187755#0"/>
 <trip depart="269.0" departLane="best" departSpeed="max" from="98236882#1" id="rs_c001_i000_511" to="60727164#1"/>
 <trip depart="269.0" departLane="best" departSpeed="max" from="-22914198" id="rs_c000_i000_2965" to="35062429#0"/>
 <person depart="269.02" id="p15">
  <ride from="58097865" lines="taxi" parkingArea="pa24429380-AddedOffRampEdge" to="24429380-AddedOffRampEdge"/>
 </person>
 <trip depart="272.33" departLane="best" departSpeed="max" from="-30471451" id="rs_c000_i000_1810" to="362987791#0"/>
 <person depart="273.0" id="p16">
  <ride from="73225130#1" lines="taxi" parkingArea="pa24429380-AddedOffRampEdge" to="24429380-AddedOffRampEdge"/>
 </person>
 <person depart="274.87" id="p17">
  <ride from="-30471451" lines="taxi" parkingArea="pa362987791#0" to="362987791#0"/>
 </person>
 <trip depart="278.0" departLane="best" departSpeed="max" from="56253839" id="rs_c000_i000_3068" to="58425043"/>
 <trip depart="281.0" departLane="best" departSpeed="max" from="-286404309" id="rs_c000_i001_426" to="58423646"/>
 <trip depart="285.0" departLane="best" departSpeed="max" from="-301127378" id="rs_c000_i001_435" to="35062429#0"/>
 <trip depart="286.0" departLane="best" departSpeed="max" from="-32016029#3" id="rs_c001_i001_76" to="224710093#1"/>
 <trip depart="293.0" departLane="best" departSpeed="max" from="-224710093#0" id="rs_c000_i000_3232" to="530282943"/>
 <trip depart="293.0" departLane="best" departSpeed="max" from="-78343357" id="rs_c000_i000_3235" to="117654824#0"/>
 <trip depart="295.0" departLane="best" departSpeed="max" from="4643592" id="rs_c000_i000_3244" to="234899446"/>
 <trip depart="302.0" departLane="best" departSpeed="max" from="-62106322#0" id="rs_c001_i000_145" to="138914231#0"/>
 <trip depart="302.0" departLane="best" departSpeed="max" from="-75565714" id="rs_c001_i000_578" to="30326722"/>
 <trip depart="304.0" departLane="best" departSpeed="max" from="-79690674#0" id="rs_c000_i000_416" to="34760663"/>
 <person depart="304.9" id="p18">
  <ride from="-30471451" lines="taxi" parkingArea="pa60727164#1" to="60727164#1"/>
 </person>
 <trip depart="314.0" departLane="best" departSpeed="max" from="349896687#1" id="rs_c000_i000_3457" to="1081179231"/>
 <trip depart="321.11" departLane="best" departSpeed="max" from="240100844#0" id="rs_c001_i000_49" to="530282943"/>
 <person depart="323.0" id="p19">
  <ride from="24031456#0" lines="taxi" parkingArea="pa24428921" to="24428921"/>
 </person>
 <trip depart="324.26" departLane="best" departSpeed="max" from="35703215" id="rs_c000_i000_1724" to="-1075684663#0"/>
 <person depart="335.0" id="p20">
  <ride from="-101521565" lines="taxi" parkingArea="pa117654824#0" to="117654824#0"/>
 </person>
 <trip depart="342.0" departLane="best" departSpeed="max" from="-38336405#0" id="rs_c000_i000_3759" to="104147692"/>
 <trip depart="343.0" departLane="best" departSpeed="max" from="5095166" id="rs_c001_i000_652" to="30471451"/>
 <person depart="346.0" id="p21">
  <ride from="-122529110" lines="taxi" parkingArea="pa144246396#1" to="144246396#1"/>
 </person>
 <trip depart="348.0" departLane="best" departSpeed="max" from="-122529101" id="rs_c001_i000_660" to="26187755#0"/>
 <person depart="356.43" id="p22">
  <ride from="58097865" lines="taxi" parkingArea="pa104147692" to="104147692"/>
 </person>
 <trip depart="363.0" departLane="best" departSpeed="max" from="-52673136" id="rs_c001_i001_89" to="60727164#1"/>
 <trip depart="365.0" departLane="best" departSpeed="max" from="118864079#1" id="rs_c000_i000_4008" to="26187757#1"/>
 <trip depart="367.0" departLane="best" departSpeed="max" from="-95937728#1" id="rs_c000_i000_2366" to="144246396#1"/>
 <person depart="370.0" id="p23">
  <ride from="301503276" lines="taxi" parkingArea="pa35061798" to="35061798"/>
 </person>
 <person depart="379.0" id="p24">
  <ride from="-211208696#0" lines="taxi" parkingArea="pa24424238#0" to="24424238#0"/>
 </person>
 <trip depart="383.0" departLane="best" departSpeed="max" from="-14571550#0" id="rs_c000_i001_587" to="35062429#0"/>
 <person depart="388.0" id="p25">
  <ride from="5091199" lines="taxi" parkingArea="pa34760663" to="34760663"/>
 </person>
 <trip depart="402.0" departLane="best" departSpeed="max" from="-22604699#0" id="rs_c000_i000_4461" to="104147692"/>
 <trip depart="406.0" departLane="best" departSpeed="max" from="-26040294#1" id="rs_c000_i000_4507" to="58423646"/>
 <trip depart="414.0" departLane="best" departSpeed="max" from="95916459" id="rs_c000_i001_632" to="35062429#0"/>
 <trip depart="416.0" departLane="best" departSpeed="max" from="136721679#0" id="rs_c000_i000_4626" to="24428921"/>
 <trip depart="418.57" departLane="best" departSpeed="max" from="-30471451" id="rs_c001_i000_345" to="102332984#0"/>
 <trip depart="422.0" departLane="best" departSpeed="max" from="-335084841#1" id="rs_c000_i000_4684" to="234899446"/>
 <trip depart="423.0" departLane="best" departSpeed="max" from="631862806" id="rs_c001_i000_812" to="234899446"/>
 <person depart="428.0" id="p26">
  <ride from="-136721675" lines="taxi" parkingArea="pa58423646" to="58423646"/>
 </person>
 <trip depart="430.0" departLane="best" departSpeed="max" from="-83510232#0" id="rs_c001_i001_103" to="234899446"/>
 <trip depart="430.39" departLane="best" departSpeed="max" from="-30471451" id="rs_c000_i000_2866" to="60727164#1"/>
 <trip depart="431.0" departLane="best" departSpeed="max" from="-23960853#0" id="rs_c000_i000_4802" to="138914231#0"/>
 <trip depart="432.81" departLane="best" departSpeed="max" from="38674850" id="rs_c000_i001_44" to="38674844"/>
 <trip depart="434.0" departLane="best" departSpeed="max" from="-137388193" id="rs_c000_i000_4832" to="38455846"/>
 <trip depart="434.62" departLane="best" departSpeed="max" from="29508075#2" id="rs_c000_i000_1243_part1" to="132793806"/>
 <person depart="437.0" id="p27">
  <ride from="-4232328" lines="taxi" parkingArea="pa530282943" to="530282943"/>
 </person>
 <person depart="437.67" id="p28">
  <ride from="-30471451" lines="taxi" parkingArea="pa60727164#1" to="60727164#1"/>
 </person>
 <trip depart="438.0" departLane="best" departSpeed="max" from="-95937728#1" id="rs_c000_i000_4122" to="144246396#1"/>
 <trip depart="439.0" departLane="best" departSpeed="max" from="97097111#1" id="rs_c000_i000_4896" to="234899446"/>
 <trip depart="444.0" departLane="best" departSpeed="max" from="24398203#1" id="rs_c000_i000_4955" to="58423646"/>
 <person depart="444.76" id="p29">
  <ride from="38674850" lines="taxi" parkingArea="pa38674844" to="38674844"/>
 </person>
 <person depart="448.0" id="p30">
  <ride from="122529098#0" lines="taxi" parkingArea="pa26187757#1" to="26187757#1"/>
 </person>
 <trip depart="451.0" departLane="best" departSpeed="max" from="-10426171#0" id="rs_c001_i000_874" to="35062429#0"/>
 <trip depart="457.0" departLane="best" departSpeed="max" from="-136721671" id="rs_c000_i000_5099" to="26187757#1"/>
 <trip depart="459.0" departLane="best" departSpeed="max" from="24031456#5" id="rs_c000_i000_5137" to="58423646"/>
 <trip depart="464.0" departLane="best" departSpeed="max" from="-212694590" id="rs_c000_i000_5199" to="144246396#1"/>
 <person depart="464.0" id="p31">
  <ride from="125351183" lines="taxi" parkingArea="pa26187755#0" to="26187755#0"/>
 </person>
 <trip depart="466.0" departLane="best" departSpeed="max" from="-32016029#2" id="rs_c000_i000_5229" to="-26341966#1"/>
 <person depart="471.6" id="p32">
  <ride from="30471452#0" lines="taxi" parkingArea="pa234899446" to="234899446"/>
 </person>
 <person depart="477.0" id="p33">
  <ride from="126140573#0" lines="taxi" parkingArea="pa234899446" to="234899446"/>
 </person>
 <trip depart="479.0" departLane="best" departSpeed="max" from="-26040356#1" id="rs_c001_i000_923" to="58423646"/>
 <person depart="482.0" id="p34">
  <ride from="-38336405#3" lines="taxi" parkingArea="pa104147692" to="104147692"/>
 </person>
 <trip depart="485.0" departLane="best" departSpeed="max" from="-147136167" id="rs_c001_i000_940" to="35062429#0"/>
 <trip depart="485.0" departLane="best" departSpeed="max" from="1010508082" id="rs_c000_i000_5412" to="39139679"/>
 <person depart="492.38" id="p35">
  <ride from="58097865" lines="taxi" parkingArea="pa24429380-AddedOffRampEdge" to="24429380-AddedOffRampEdge"/>
 </person>
 <person depart="501.0" id="p36">
  <ride from="-136864084#1" lines="taxi" parkingArea="pa24428921" to="24428921"/>
 </person>
 <trip depart="504.0" departLane="best" departSpeed="max" from="-314426030#0" id="rs_c000_i000_5617" to="234899446"/>
 <trip depart="507.0" departLane="best" departSpeed="max" from="122529102#1" id="rs_c000_i000_5652" to="144246396#1"/>
 <person depart="522.0" id="p37">
  <ride from="-122529098#1" lines="taxi" parkingArea="pa58423646" to="58423646"/>
 </person>
 <trip depart="527.0" departLane="best" departSpeed="max" from="26040294#0" id="rs_c001_i000_1014" to="58423646"/>
 <person depart="530.0" id="p38">
  <ride from="83163137" lines="taxi" parkingArea="pa104147692" to="104147692"/>
 </person>
 <trip depart="531.0" departLane="best" departSpeed="max" from="-24399325#0" id="rs_c000_i000_5907" to="58423646"/>
 <trip depart="533.0" departLane="best" departSpeed="max" from="98236882#1" id="rs_c001_i000_1036" to="60727164#1"/>
 <trip depart="542.0" departLane="best" departSpeed="max" from="4250372" id="rs_c000_i000_6018" to="61566225#1"/>
 <person depart="543.87" id="p39">
  <ride from="38674850" lines="taxi" parkingArea="pa237368116#1" to="237368116#1"/>
 </person>
 <trip depart="565.0" departLane="best" departSpeed="max" from="-79690674#0" id="rs_c000_i000_6177" to="34760663"/>
 <trip depart="567.0" departLane="best" departSpeed="max" from="-34149612#0" id="rs_c000_i000_6290" to="24428921"/>
 <trip depart="571.0" departLane="best" departSpeed="max" from="301503168#1" id="rs_c000_i000_5706" to="35061798"/>
 <trip depart="571.0" departLane="best" departSpeed="max" from="-14571550#0" id="rs_c000_i000_6342" to="35062429#0"/>
 <trip depart="574.0" departLane="best" departSpeed="max" from="-62115260" id="rs_c000_i000_6377" to="24429380-AddedOffRampEdge"/>
 <person depart="576.0" id="p40">
  <ride from="32461045#6" lines="taxi" parkingArea="pa328253309#1" to="328253309#1"/>
 </person>
 <trip depart="576.0" departLane="best" departSpeed="max" from="78535771" id="rs_c000_i001_871" to="362987791#0"/>
 <trip depart="577.0" departLane="best" departSpeed="max" from="-4244655" id="rs_c000_i000_6408" to="24424238#0"/>
 <person depart="580.3" id="p41">
  <ride from="30471452#0" lines="taxi" parkingArea="pa-24429415" to="-24429415"/>
 </person>
 <person depart="582.0" id="p42">
  <ride from="-95937728#1" lines="taxi" parkingArea="pa144246396#1" to="144246396#1"/>
 </person>
 <person depart="583.0" id="p43">
  <ride from="-118155460" lines="taxi" parkingArea="pa26187757#1" to="26187757#1"/>
 </person>
 <trip depart="585.0" departLane="best" departSpeed="max" from="-35606385#0" id="rs_c000_i000_101" to="-283762346"/>
 <trip depart="585.0" departLane="best" departSpeed="max" from="4250371" id="rs_c001_i000_1141" to="24424238#0"/>
 <trip depart="585.23" departLane="best" departSpeed="max" from="30471452#0" id="rs_c000_i000_621" to="60727164#1"/>
 <trip depart="586.0" departLane="best" departSpeed="max" from="-57726373#0" id="rs_c000_i000_6484" to="58423646"/>
 <trip depart="587.52" departLane="best" departSpeed="max" from="30471452#0" id="rs_c000_i001_419" to="60727164#1"/>
 <trip depart="589.0" departLane="best" departSpeed="max" from="-211208696#0" id="rs_c000_i000_5930" to="234899446"/>
 <trip depart="590.62" departLane="best" departSpeed="max" from="25600863" id="rs_c000_i000_2404" to="24429380-AddedOffRampEdge"/>
 <person depart="591.7" id="p44">
  <ride from="62059875#1" lines="taxi" parkingArea="pa34760663" to="34760663"/>
 </person>
 <trip depart="593.0" departLane="best" departSpeed="max" from="-95937728#1" id="rs_c000_i000_5794" to="144246396#1"/>
 <trip depart="597.0" departLane="best" departSpeed="max" from="-57726373#0" id="rs_c000_i000_6601" to="58423646"/>
 <trip depart="600.59" departLane="best" departSpeed="max" from="58097865" id="rs_c000_i000_4463" to="38674844"/>
 <trip depart="601.0" departLane="best" departSpeed="max" from="-79690674#0" id="rs_c000_i000_3423" to="25980639"/>
 <trip depart="603.0" departLane="best" departSpeed="max" from="-10374052" id="rs_c001_i000_1171" to="530282943"/>
 <trip depart="604.0" departLane="best" departSpeed="max" from="118864079#4" id="rs_c001_i000_1173" to="58423646"/>
 <person depart="607.0" id="p45">
  <ride from="5234573#1" lines="taxi" parkingArea="pa35062429#0" to="35062429#0"/>
 </person>
 <trip depart="607.5" departLane="best" departSpeed="max" from="38674850" id="rs_c000_i000_189" to="104147692"/>
 <trip depart="609.0" departLane="best" departSpeed="max" from="142497095" id="rs_c000_i000_6759" to="1081179231"/>
 <person depart="611.0" id="p46">
  <ride from="-14434303" lines="taxi" parkingArea="pa104147692" to="104147692"/>
 </person>
 <trip depart="622.04" departLane="best" departSpeed="max" from="35062276" id="rs_c000_i000_5634" to="362987791#0"/>
 <trip depart="622.08" departLane="best" departSpeed="max" from="30471452#0" id="rs_c000_i000_1659" to="60727164#1"/>
 <person depart="630.0" id="p47">
  <ride from="30471452#0" lines="taxi" parkingArea="pa234899446" to="234899446"/>
 </person>
 <person depart="635.0" id="p48">
  <ride from="-122529094#7" lines="taxi" parkingArea="pa144246396#1" to="144246396#1"/>
 </person>
 <person depart="636.0" id="p49">
  <ride from="-345608028" lines="taxi" parkingArea="pa234899446" to="234899446"/>
 </person>
 <trip depart="638.0" departLane="best" departSpeed="max" from="321098632#1" id="rs_c001_i000_1229" to="234899446"/>