<tazs xmlns:xsi="http://www.w3.org/2001/XMLSchema-instance" xsi:noNamespaceSchemaLocation="http://sumo.dlr.de/xsd/taz_file.xsd">
    <taz id="po_1001" color="red" edges="-21519792 -22945566 -23014654 -23089275#0 -23089275#1 -28655438#1 -29689104#0 -29990320 -30141011 -404328668#0 -404328668#1 -404328669 -418112245 -494775426 -5043417 -5043438 -51270245 -550660688 -772172188 -772172190 -8097218 -8097222 -8097229 -8097234 -83899313 -931083101 -931083147 21519800 22945566 23014654 23089275#0 23089275#1 28655438#1 29689104#0 29689105 29689106 29689107 30141011 334230532 404328668#0 404328668#1 404328669 418112245 494775425 5043417 5043438 550660688 8097218 8097222 8097229 8097234" />
    <taz id="po_1002" color="red" edges="-21519763 -5043405 -5043447 -5043454 -550660692 -815557326 -83899296 -83899308 -83899318 -83899322 -83994235 -83994236 -931083103 21519763 29689103 29990320 31002958 31002959 5043381 5043422 5043447 5043454 83899293 83899334 83899337 83994235 83994236 931083103 934288472" />
    <taz id="po_1003" color="red" edges="-116363379 -116363505 -177288620 -22981415 -30531154 -404641522#0 -45011173 -494775398 -494775420 -5043216#0 -5043216#1 -8097200 -8097202#0 -8097208 -83899305#0 -83899328 -83904234#0 -83904234#1 177288620 22945579 22981415 30531146 30531154 404641522#1 45011173 5043216#0 5043216#1 5043294 550660681 550660682 550660683 550660686 550660687 550660694 8097200 8097202#0 8097202#1 8097208 8135744#3 8135744#4 83899305#1 83904233 83904234#1 934288466" />
    <taz id="po_1004" color="red" edges="-180421875#0 -188464644 -190497695#3 -21519263 -21519274 -23016126#0 -23044186#0 -26923302 -27150218 -333893678 -35358170#0 -35358170#1 -403552282 -412420330 -4226246 -494775394 -494775395 -4960685 -5037055 -5043444 -5043837 -5043838 -556688625 -78492316#1 -79819558#0 -79819561#1 -79819565 -803387257 -81512750 -81512753#0 -81512756 -81512757#0 -83897892 -83897897 -83897900 -83900121 -83900123#0 -83900135 -83900355#1 -8591814 -931083113 -98157338 -98157350 180421875#0 180421875#1 188464644 190497689#0 190497695#0 190497696#0 190497697#0 190497699#0 190497700#0 190497701#0 21519274 21519291 22981402 23016122 23016126#0 23016126#1 23044186#0 23044186#1 26923267 26923302 26923310#0 26923310#1 30068578#0 30089928 30529676 30529681#0 30531148 30531152 333648700 333893678 333893679 35358170#1 403552282 412420330 4226245 4226246 4581554 4875458 494775395 4960685 5037034 5037055 5043444 5043837 5043838 55594725 55594727 78492316#0 79817967 79819558#1 79819561#2 803387257 8096899 8096918 8135744#0 8135744#1 8135744#2 81512758 83897893#1 83897900 83900118#0 83900123#1 83900131 8591814 934288476" />
    <taz id="po_1005" color="red" edges="-25807926 -27264374#0 -30529679 -404181398 -4226234 -4875455 -494775403 -5043845 -550660691 -55594722 -78491120 -78491136 -79817950 -79817955 -79820094 -79820099 -79820104 -79820799 -8135741 -81514471#2 -81514819 -81514852 -81515920 -8591750#0 -8597357 -98157345#1 132833645 132833646 132833646-AddedOffRampEdge 138570799 138605731 149705103 17482196 17482197 180755093#0 190497691#0 190497691#1 190497692#0 240269278 248372771 26950587 27264374#1 27264495 27462269 27945999 30013649#0 30529677 30529679 30531140 30531143#1 30531143#3 326767777 404178430 42138980#0 4226233 4226234 4226235 4226239 4226242 4226243 4875455 4875457#0 494775403 494775407 5043845 5043855 521013102 55594721 55594723 55594724 55594726 574788711 574788753#0 743336299 79817954 79817963 79817979 79820102 79820110 8135738 854168921 8591750#0 8591750#1 8597357 86957325 86957333 86957342#0 89647078 98157345#0" />
    <taz id="po_101" color="red" edges="-282019290 -36730363 17214423#0 217189185#0 217189186#0 22906936 25522290#0 27265277#0 28583925#0 28684237#0 28684238 28775417#0 28920789 30259739#0 30259803#0 30259987#0 30259989#0 30259990 30471500#0 30471501 30471502#0 30530172#0 30530173#0 369151175#0 37137191#0 38156742 38156743#0 45150439#0 51707741#0 53355663 8046423#0" />
    <taz id="po_1011" color="red" edges="-108200235 -23079506 -24495605 -30815693#0 -30815693#1 -30815693#2 -344154607 -344568239 -411379796 -411777885 -411777888 -475430744 -5043472#0 -5043472#1 -5043472#2 -5043474#0 -5043474#1 -5043474#2 -5043475 -78391773 -78404518 -78404520#0 -78404521 -78404525 -78494999#0 -78495000 -8598221 -8598232#0 -8598232#1 -8598241 -8598280 -8598281 -8598282 -8598296 108200235 23079506 30815693#0 30815693#1 30815693#2 344154607 411777888 4226219 5043472#1 5043472#2 5043474#0 5043474#1 5043474#2 5043475 5046568 78404519 78404520#0 78404520#1 78404521 78404523 78404525 78406485 78494999#1 78495001 8598221 8598232#0 8598232#1 8598241 8598247 8598280 8598282 8598286" />
    <taz id="po_1012" color="red" edges="-263226552 132832283 17485128 27150452 29752748 29753283 29753283-AddedOffRampEdge 7525777 98102535" />
    <taz id="po_1013" color="red" edges="-149705098 -171795534 -17485111 -179047718 -179047719 -32511102#0 -32511102#1 -404703011 -404703042 -4226223 -475430739 -475430741 -48297074 -494775415 -494775416 -78407447 -8135731 -931456978 -98286741 -98286743#0 -98286743#1 108200237 132833644 132852453 132852454 132852457 132852458 132852459 171795534 179047719 22605715 27462277#4 27946000 30529806 30529807 32511102#0 32511102#1 32511103 331090750 34359762 34359762-AddedOffRampEdge 34359763 35357596 35357598#1 4226220 4226223 4226227 4227165 4227166 494775419 5236048 8135731 8135740 98286743#1" />
    <taz id="po_1014" color="red" edges="-108200238 -27132602 -27462277#3 -344099788#0 -344099789 -344350309 -35357639 -40349256#0 -404316646 -405340929 -42919529 -459809058 -5043842#0 -7529498 -78400612 -78401852#0 -78401854#0 -78401854#1 -78401854#2 -78491123 -78495002 -78495006#0 -8597251 -8597258 -8598287 190497690#0 22981358 23016130 23595130#0 27462277#0 284925724 30529682 30529808 344099788#1 344154601 344568238 35357639 40349256#1 40350117#0 40350117#1 405340928 405340929 405340931 4226228 5043842#0 5043842#1 7529498 78400612 78401852#1 78401854#1 78401854#2 78401854#3 78491123 78495005 78495006#1 8135737 8597251 8597258 8598287" />
    <taz id="po_102" color="red" edges="-127807457 -16961928 -30141049 -76028720 -827290050#1 117164338 117164342 122595217 14472962#0 157428789#0 16279761 16962141 17000556 17000885#0 22906934 238779011#1 24449353 26428941#0 28888690 29690379#0 30259741#0 30329872 4247504#0 4247505 606105695#0 8034129 856852861" />
    <taz id="po_1021" color="red" edges="-14336002#0 -14336002#1 -4223739#0 -4223739#1 -4223742 14336002#1 4223739#0 4223739#1 4223740 4223742" />
    <taz id="po_1022" color="red" edges="-1058773187 -109355403 -109355404 -109355408#0 -109355414 -149705104 -165091307 -26133345#2 -27131466 -4223743 -737641301 -76737123 -7970706 -7970728 -81178546 -96701427#0 -96701427#1 109355408#0 109355408#1 109355417 165091307 22958099#0 24787814 24787912 26133345#0 264473404 27131466 4217935 4223738#0 4223743 4298740 5231651 652884601 7970705 7970706 7970728 96701427#0 96701427#1 96701428" />
    <taz id="po_1023" color="red" edges="-101696905#0 -15881544#0 -15881544#1 -15881544#2 -18467158 -22963714 -301516569 -301875350 -312459271 -312462380 -4217947 -4220238 -4220241#0 -4220244#0 -4220244#1 -4220245 -646092509 -646092513#1 -76737122#0 -81178601 -85511096 -85564173 -85564174#0 -85564174#2 101696905#1 15881542 15881544#0 15881544#1 15881544#2 22963714 301516570 301516571 301875350 312459271 4217947 4220238 4220241#0 4220241#1 4220244#0 4220244#1 4220245 4233513 55449400#0 646092509 646092513#1 76737122#1 85564173 85564174#0 85564174#1 85564174#3" />
    <taz id="po_1024" color="red" edges="-185584599 -26698200 -4229447#0 -4229447#1 -4229447#2 -4448742 -4468814 -4468815#0 -4468815#1 -4526883#0 -4526883#2 -4526884 -4553653 -617369739#0 -617369739#1 185584599 22918530 272043198 4229447#0 4229447#1 4229447#2 4229447#3 4468794 4468802#0 4468802#1 4468804#0 4468804#1 4468804#2 4468804#3 4468805 4468807 4468810 4468813 4468814 4468815#0 4468815#1 4526883#0 4526883#2 4526884 4526892 4553653 4565196 617369739#1 670957426 80305904 968585539" />
    <taz id="po_1025" color="red" edges="-103304620 -1077609055 -125483771 -15453861 -191197856 -191199323 -191253807 -191544570 -191545688 -191545882#0 -191545882#1 -217557856 -217557859#0 -217557859#1 -217557859#2 -217557860#0 -27121494 -29971577#0 -301434311#0 -302368831#0 -302368831#1 -309731071#0 -312599788 -330898875 -330898883#0 -330900331 -330900341#0 -330904213 -330904519 -330910121 -332304408 -35359129 -4217916 -4217917#0 -4229441 -4444356#0 -4444356#1 -4444379#0 -4444379#1 -4444590 -4444592#0 -4444592#1 -4481442 -4554311 -4565190 -4565191#0 -4565191#1 -76735936 -76735937 -80242782#0 -82518149 -96560046 -96560050 -96560051 -96560052#0 -97678599 -97678787#0 -97678787#1 -97678787#2 -98882766 -98882774 1061462397#2 116472198#1 116472213#1 116472526#0 125483769 125483772 138063043#0 191197856 191199323 191253804 191545683 191545684 191545685 191545686 191545688 191545882#1 191545882#2 217557859#1 217557859#2 217557860#1 26698153 27121488 27121494 27737310#0 27737310#1 27737310#2 285102744 285102745 28545635 29971577#0 29971577#1 301434311#1 301434312 302368828#1 302368829#1 302368831#1 302368831#2 30263401 30263402 309731071#1 312601094#1 330900341#1 35359129 368303265#0 368303265#1 41882141 4217916 4217917#0 4217917#1 4227182#0 4229405 4229437 4229441 4229467 4229473 4444356#0 4444356#1 4444379#0 4444379#1 4444589 4444590 4444592#0 4444592#1 4470779#0 4481442 4492783#0 4492783#1 4492783#2 4492784#0 4492784#2 4565131 4565190 4565191#0 4565191#1 4565191#2 4565192#0 4565192#1 4565194 4759830 610001946 622564959#0 73204591#0 76735936 76735937 78320259 80242782#1 82518148#0 865028100 96560047 96560048 96560051 96560052#1 96560053 97678602 97678787#0 97678787#1 97678787#2 98882765 98882767" />
    <taz id="po_1026" color="red" edges="-1061462397#0 -1061462397#1 -138065837 -138065839 -138067566#0 -138067566#1 -191201120 -208561690 -27937780#0 -301852089 -308586582 -308586583#0 -308586584#0 -308586584#1 -309747600#0 -312599800 -330898878 -330898882 -33400974#0 -33400974#1 -33400974#2 -33400975 -4229408#0 -4229408#1 -4229457#0 -4229457#1 -4229457#2 -4229457#3 -4233512 -4447542 -4450477 -4481441 -4485426#0 -80241102#1 -94124135 -94124194 -96202732 -96559142 -96598498 -969228270 1061462397#0 1061462397#1 130639532 130639533 133104417#0 133104417#1 138065837 138065844 138065847 138067566#1 15453856 191201120 25523330 26349723 27937780#0 27937780#1 28617476#0 28617476#3 28717575 302369112 30263412#0 30263413 308586583#0 308586583#1 308586584#0 308586584#1 309747600#1 312599799 330192679 330898883#1 33400974#0 33400974#1 33400974#2 33400974#3 33400975 35359521 35380715 4229403 4229408#0 4229408#1 4229408#2 4229457#0 4229457#1 4229457#2 4229457#3 4229476 4233512 4447542 4450477 4470777 4470779#2 4481441 4485407 4485408#0 4485409 4485410#0 4485426#0 4485426#1 81178423#0 87753974#1 87753985 87753991#0 94124202 96202732 96202733 96559139 96559143 96598385#0 97695373" />
    <taz id="po_1027" color="red" edges="-4485411 -4485412#0 -78322107 4485411 4485412#1 78319613" />
    <taz id="po_103" color="red" edges="-122869881 -122880938#0 -16961858 -224479207 -29507725 -34918425 -35868937#1 -374102056 -374102057#1 -652193324 -81149144 122869881 122869888 122869893#0 122880938#0 16961858 224479203 22512953 23952344 26431225#0 26431226 26448688 28903193#0 29507724#0 29507725 29722945 30260136#0 30288181#0 30288182#0 30288183#0 30471533 30967467#0 317502980 333205914#0 333205914#1 35062275 35868937#0 43513700 575120798 575120799 606094334" />
    <taz id="po_1031" color="red" edges="-116609541 -125693711 -125693715 -30471449 -30471450 -4216414#0 -4229454#0 -4229454#1 -4233519 -8135855 125693715 30471449 30471450 4216414#0 4216414#1 4220763 4229454#0 4229454#1 4233519 8135855" />
    <taz id="po_1032" color="red" edges="-116610243 -29688693 -35028510 -4229427#0 -4233511#0 -4233517#0 -4233517#1 -94087971 -94107509 -96596621 -96596623#0 -96597361 -96597366#0 -97097108 -97097111#0 -97115640 -98873592 26968403 29688693 34495949 35028510 35062276 4229427#0 4233511#0 4233511#1 4233517#0 4233517#1 4242592 906802008 94087971 94107486 94107492 96596623#1 96597366#1 97097111#1" />
    <taz id="po_1033" color="red" edges="-8058345 1080298604 126131450#0 126131456#0 126131488#0 188956289 243774930#0 30001659 38198189#0 8058345 94088835" />
    <taz id="po_1034" color="red" edges="-103302383#2 -142497100#0 -26349563#1 -328813517 -78312368 -96556756 103302381 103302383#0 133104420#0 142497100#1 26349563#0 26349564#0 26349564#2 26349747#0 30471452#0 328813509 335559222 4486013 984011718" />
    <taz id="po_1035" color="red" edges="-193644278#0 -193644278#1 -30471451 -310738357 -362993458 -362993459 -4229427#1 -4229445 -722724103 -765843955 -906802009 -94087965 -94087966 -96050742 -96559363 -96596615#0 -97117877 102276835#0 104147692 125809074#0 125809093 125809105 125809116 188956290 193644278#0 193644278#1 24464021#0 24464024#0 25617821 26349565#0 26349567#0 26349621 26349689 26959968#1 26959968#2 26959968#3 26959985 30471451 30605197#1 30605198 310738357 343482005 362993459 41882139 4229427#1 4229427#2 4229445 540032980 609759373#0 609759375 609759377 631862806 668611390#0 722724110 906802009 94107470 96050735 96596615#1 97117877" />
    <taz id="po_104" color="red" edges="-122595210 -136394101 -199191047 -221192006 -26431224#1 -27193116#0 -27193116#1 -307563434 -36730342 -36730362 122595210 122595245 122876613#0 122876615 122876617#0 123063616 123341601 136394101 14472965#0 15466776#0 166171129 17000361#0 17001909 17047168#0 17058783#0 17132580#0 24449785 26431224#0 26431227#0 27193116#1 339719038#0 34144204#0 34144204#2 34732047#0 34732047#5 36730338 36730339 4247501#0 427775608" />
    <taz id="po_1041" color="red" edges="-102278339 -102282708#0 -1052613455 -1076691210 -17265677 -188653321 -208585109#0 -26367998#0 -28912204 -313656937 -314405014 -314415287 -314422898#0 -314424813 -314424822#0 -314426030#0 -314426030#1 -314428600 -314430369 -324738924 -324741543 -324745283 -328040089 -404119038 -408861540 -4227191 -4273623 -76346322 -76737570#1 -83163097#0 -83163097#1 -83163101 -83163114#0 -83173842#0 -83372996 -83488847 -83488850 -83488857#0 -83488866 -83488867 -83488868 -83488895#0 -83495765 -83508584 -83510232#0 -84656435#0 102282708#1 102282710 10357311 1052613455 10558072 10558745 1076691210 142497098 142497101#0 147749318 160377250#0 17265675 17265677 188654001#0 208585109#1 22604704#0 22999348 25153041 25153043#0 25153046#0 25153048 25361629 25361630 25981453#0 26348749 26348750 26348751#0 26367998#0 28106479#0 28377479#0 28655825#0 28912204 29688689#0 29688690 29712332 29712334#0 30263381 30797421 30956035#0 313656936 313725750 313769009 313769303 313769305 314159875 314405678 314409797 314414019 314414021 314424822#1 314426030#1 328040089 34294088#0 35391373#0 35391374 35391375 35391376 35391377 35873188 35873189 362987791#0 38674840 38674842 39128352 40155347 404119038 40801556 40801557 408861540 41844429 4227191 4273621 4273623 4273624 4273625 4273629 653986864 654803138 76346323 76737570#0 78535774 78535784 79851744#0 79851744#2 83163097#1 83163101 83163109 83163114#1 83163119 83163132 83171809 83186565 83488857#1 83488859 83488871 83488895#1 83496334 83510230 83510232#1 84656435#1 85044863#0 989000421" />
    <taz id="po_1042" color="red" edges="-10357193 -1080290022 -312887967 -312887979 -327763010 -4485415 -4643592 -78535771 -78535798#1 -78535801#0 -87397768 -87397772 -87397777 -87397780 -87397781 -95799435 -97694266 -98236882#0 10357193 142497097 29509214 30001652#0 312543253 312887979 4220453 4250371 4250372 4643592 76737569 78535771 78535795 78535798#0 78535798#2 81177995 87397777 94090002 95799445 97694266 97694267 98236882#1" />
    <taz id="po_1043" color="red" edges="-10558102 -5231759 -8064520 -83163106 -83173842#1 -83633201 -84639207 -84639209 -84639229#0 -84639236 -84639239 1006265805#0 1006265805#3 10558159 126142082#0 126449221#0 126449231#0 126449241 132852431 132852432 17462089#0 190981787 190981790#0 20826774 217694415#0 219528063 237399745 243759680 26708177 30001658 331762119 339725034 34178664 34178665#0 34178666 34178668 34178669 346591957 4220452#0 4492785#0 4492786 4492787#1 4680620#1 51856551#0 5231759 60104143 654803136 654803140 654803141 654803142 654803144 654803145 654803146 80228049 8064519 8064520 83163106 83173842#1 83633194 83633201 84639218 84639229#1 899868125 93670633#1" />
    <taz id="po_1044" color="red" edges="-10557968 -10558007#0 -217696286#0 -237386917#1 -26368085 -330284379#0 -366308473 -366308474 -47089824 -8141209 -8394862 -84017983 -84639212 -84656707#0 -85562446#0 -85562449 10558007#0 10558007#1 10559201 237386917#0 24487041 26368085 365469908 47089824 47089825 47089826 5234697 5234702 8141209 8394862 84023980 84639212 84656707#1 85562446#1" />
    <taz id="po_1045" color="red" edges="-10559035 -138914235#0 -191270666 -191374712#0 -191374714#0 -191374715#0 -191374715#1 -217695970#0 -233865795 -26368312 -28656717 -30529008 -345608028 -345608031 -345608032#0 -34948308 -349902607#0 -349902607#1 -349909771 -349909772#0 -365580162 -366655855 -39125215#0 -39300458#1 -5058069 -5234757#0 -83187094 -84017998 -84017999#0 -84018015 -84018022#0 -84018033 -86527626 -86527629 -86527638#0 -86527656 -86527681#0 -86527689 -86529043 -98234422 1010508081 1010508082 10558947 10559035 138914235#1 191374712#1 191374714#1 191374715#1 217695969 233865795 26368312 28656717 29688700 331361889 345608032#1 34948308 349902606#0 349902606#1 349902607#0 349902607#1 349902608#0 349902608#1 349909772#1 365580162 366655855 39125215#1 39139273 39300458#0 39300458#1 5234757#0 5234757#1 5234761#1 5234766 71360394 83187094 84017999#1 84018022#1 84639228#1 85123364 86527629 86527638#1 86527656 86527681#1 86527697 97836595" />
    <taz id="po_1046" color="red" edges="-205468106 -22604699#0 -22604699#1 -286340280 -286340281 -314258297 -339760447 -5239877 -75869948 -76346745 -76346747 -94194703 -94194722 -96700281 115757335 138669847 138669848 149576263 22604698 22604699#1 25153039#0 263226857 28241503 28241505#0 28241505#1 28377477 28377478 28377480 28377481 28377482 286340278 286340280 286340281 286340282 286340284 30016025 30528970 314159876 314213329 314826972 322727046 327405754 328836206 328836206-AddedOnRampEdge 328836208 339760447 340206715 38674838 38674839 38674851 38674852 39290133 40347661#0 40347661#1 40347661#2 40347662#0 4254918 4368254 58027258 59699456 606115088 60769757 75869950 76347250 77465827#2 8033755 83163117 97822584" />
    <taz id="po_1047" color="red" edges="-10558824 -149705105#0 -21052315#0 -22604695#1 -237837493#0 -26367881 -26367999 -286175725#2 -286175728 -313693701 -313724641#1 -314249787 -314252682 -314256365#0 -314300963 -317402981 -317560495 -339760503 -339760505#0 -349896686 -349896687#0 -349896687#1 -39316011#0 -39316011#1 -4680630 -5058062 -5058070 -59603305#0 -59603306 -611245993 -83163108 -83163126 -83497364 -83506735 -83506745 -84018298 10557655 10557712 10557851 10558792 10558824 149705105#0 149705105#1 161855012 161855013 21052315#0 21052315#1 237837493#0 237837493#1 26367998#1 26367999 286175725#0 286175725#3 286175728 314250821 314252679 314252689 314256365#1 314422898#1 339760505#1 349896687#1 349896688 39316011#0 39316011#1 4273618 4680630 5058062 5058070 518948296 518948297 518948298 518948299 519077605 519077609 519077613 519077617 519077622 59601758 59603305#1 59603306 611245994 8064522 83163115 83163137 83179014 83495764 83506741" />
    <taz id="po_105" color="red" edges="-127809159#0 -127809159#1 -149118539 -149118540 -149119261 -36730335#0 -36730336#0 -36730361 -4243036#0 -75384656 -75384660 -75384662 127809159#1 149118539 149118540 149118541 189654327 26427722 26431228 26453276 307563434 36730335#0 36730335#1 36730336#1 36730360 36730361 4247500 744269187 75509961" />
    <taz id="po_1051" color="red" edges="-101520672 -137388192#0 -137388192#1 -137388193 -14433921#1 -14434303 -14571549 -14571550#0 -14571550#1 -15242125 -15242126 -15242127#1 -15242128#0 -15242128#1 -15242129#0 -15242129#1 -211122001 -29712022 -30141086#0 -30141087 -330415869 -331294153 -332126664 -335084841#0 -335084841#1 -416539515 -50044720#0 -50044720#1 -5234278#1 -5234280#0 -5234280#1 -5234378 -5234431#1 -5234464 102332986#0 102332988#0 125565903 125565915#0 126499940 132795766 132817963 132817964 132817966 132817969 132817970 137388192#0 137388192#1 137388192#2 14433921#1 14434302 14434303 14566949 14571549 14571550#0 14571550#1 14571551 14571552 14571572 15242125 15242126 15242127#1 15242128#0 15242128#1 15242129#0 15242129#1 17246382 17271766#0 17271766#1 17271766#2 175129268 202342090#1 206172953 206172956 211123426 24436439 26368654 26368656#0 26368656#1 26368687 26368688 28717819#0 28717883#0 28717885 29712022 29712025#0 29712025#2 29712027 29712058 29970080#0 30141086#0 30141087 301710105 301710114 30436422#0 331292452 331292453 331294153 335084834 335084841#0 335084841#1 335091838 335091843#0 34905760#0 34905760#1 34905760#2 363017594 38455334 38455335 38455338 38455339 38455341#0 38455846 416539515 428092910#0 443551693 462046218 4952767#0 4952789 50044720#1 50433681 5231274 5231289 5231438#0 5231438#1 5231438#2 5234175 5234274 5234278#1 5234278#2 5234280#0 5234280#1 5234378 5234400 5234431#1 5234464 530282935 530282936 530282937 530282938 530282939 530282941 60771162#0 607800580 78714806 84643998" />
    <taz id="po_1052" color="red" edges="-10559379 -153716505#0 -153716505#1 -154150880#0 -217696286#1 -217696288#0 -217696288#1 -217696289 -217696353 -232123272#0 -245623696#2 -331540389#0 -331540404#0 -331540406 -331540413 -5234573#0 -5234573#1 -84643975 -84643985 -84656708 -848433712 -855931740 10559664#0 153716504 153716505#0 153716505#1 154150880#1 16106562 217696286#1 217696288#1 232123266 232123267 232123268#0 232123268#1 232123269 232123270 232123271#0 232123271#1 232123272#0 232123272#1 245623696#3 28717927 331540389#1 331540404#1 4293566 4341525 5234573#0 5234573#1 5234587 5234590 84643983 84643987 84656705 848433709 848433710 848433713 848433714 848435998 848435999#0 848435999#1 848436000 848436001#0 848436001#1 848436002 95916457 95916459" />
    <taz id="po_1053" color="red" edges="-159761036#1 -301127377 -301127378 -331440628 -37736504 -39071853 -85127081 153716508 153716511 159761031#0 159761031#1 159761032#0 159761032#1 159761033 159761034 159761035 159761036#1 159761036#2 159761037 234956680 26240043 301127377 761463551 85127081" />
    <taz id="po_1054" color="red" edges="-235047961 -30140142 139124541#0 149022592 17245257-AddedOffRampEdge 17245261 17309096 177861018 235047961 24436396 24436437 24436442 24436443 26240042 26368389 28717817 30016021 30140141 301710121 35669033 39222889 39222890 413303757 4389848 5231312#1 607800583 78631421" />
    <taz id="po_1055" color="red" edges="-193640980 -217695968#0 -285150555#0 -285150555#1 -331440629 -331442180 -331444958 -4341507#0 -45578880 -71360393 -8394848 -84016136 -84016143 -84017451#0 -84017451#1 -84017459 -84020452 -87525116 -95917144 -9604697 153716512 153716515 164439014 217695968#1 26368315 285150553 285150555#0 285150555#1 331442180 331444958 4341507#0 4341507#1 58421454 587335329 587335332 587335337 59604976 71360393 8394848 84016143 84017451#0 84017451#1 84020449 87525116 95916455 9604697 996605136 996605137 996605138 996605139" />
    <taz id="po_1056" color="red" edges="-17264716 -217695970#1 -26368316 -330920155 -39300458#0 108954251 115757332 115757343 138914229 138914231#0 138914243 18647496 217695970#1 25980639 26368316 26815115 28912319 300290926#1 30528971 30528972#0 328836207 328836212 328836213 39139280 39139281 39139679 42010817 42010818 4254916 5234741 58421025 59700824 60769741 60769751 83163133" />
    <taz id="po_1061" color="red" edges="-206551701 -26369585 -321098637 -4226192#0 -4226192#1 -4229440 -839402625 1062183453 125858544 237399750#3 26369585 29509219#0 4226192#0 4226192#1 4226192#2 4233684 48126141 703967712 703967713 703967773 703967785 839402625" />
    <taz id="po_1062" color="red" edges="-30001656 -4229458#0 -4229458#1 -644345091#0 -707213265 1013053459#0 125858546#0 24466640 4229458#0 4229458#1 4232320 644345091#1 707213262#1 707213263#0 707213264 707213265" />
    <taz id="po_1063" color="red" edges="-10363301 -10363317 -211208696#0 -211208696#1 -235031516#0 -235031517 -4233684 -4234230 -428094273 -776693806 -839402626#0 10363301 10363317 183236305 183236306 183236313 183236314 183236316 183236317 19782605 211208696#1 229821360 235031516#1 24466644#0 24466652#0 24466652#1 24466652#3 24466652#4 24466652#5 24821265 4234230 48126139 674486880#0 8135854 8162290 839402626#0 839402626#1" />
    <taz id="po_1064" color="red" edges="-10363538 -10363546 -10363555 -10377153#1 -10405223#0 -10405223#1 -10405292 -10405419 -10405686 -125689487#0 -125689487#1 -125689487#2 -125689487#3 -125689492 -130997946 -140420313 -140536663 -210993752#0 -210993752#1 -210993752#2 -211205575 -211206248 -224035477 -230874056 -232114752 -24820127 -25894166#0 -25894166#1 -25894166#2 -367001369#0 -367001370 -367001381 -367001383 -367006381 -367006382#0 -367006382#1 -39979149 -4238006#0 -4238006#3 -607687261#0 -607687261#1 -70765311 10363538 10363546 10363555 10374019#1 10377153#1 10377170 10377201 10377234#0 10377273#1 10405223#0 10405223#1 10405292 10405419 10405686 125683976 125683979 125683982 125683985 125683989 125683991 125684004 125684032 125684045 125684051#0 125684051#2 125684054 125684057#0 125684058 125684067#0 125684075 125684077#0 125684087#0 125684091#1 125684101#0 125684106 125689487#0 125689487#1 125689487#2 125689487#3 125689492 130996783#0 130996784 130997946 140420313 140536663 144910107 154769763#0 156570582#1 210993752#0 210993752#1 210993752#2 210993752#3 211205575 224035478 22873759#2 230874056 237397873 24820127 24820643#0 24820919 25894166#0 25894166#1 25894166#2 30242128#0 30242128#3 30242128#5 330016493 330026282 367001369#1 367001383 367006382#1 367006384 367006385#0 368496681 39979146 39979149 4238006#0 4238006#1 4952736#0 52692952#0 53013584#0 53277420 53277439#0 53277443 607687261#0 607687261#1 60921782 70765311 799189295#1 799189298#1" />
    <taz id="po_1065" color="red" edges="-10373960 -10374052 -10374120 -125589533 -125684096 -20179292#1 -211199290#0 -211199290#1 -211199292 -211199295 -224710091 -237367539 -237367748#1 -237367748#2 -4237991 -4237992#1 -4244482#1 -52291443 10373851#1 10373960 10374052 10374120 125683988 20179292#1 211199290#1 211199290#2 211199291 211199293 211199295 237367748#0 237367748#2 237368115 237368116#0 237368116#1 240100844#0 240100844#1 24821264#0 417810022 4237991 4237992#1 4237996#0 4244482#1 52291443 674486879#3 8162295" />
    <taz id="po_1066" color="red" edges="-232184388 -371261956 -371261963#0 -4238011 -4238014 102332458#0 102332458#2 102332987#0 102332991 125684042#0 132795767 232184388 243683604 243683880 25767797#0 25767798#1 26344446 292953404 30914194 371261958 371261963#1 417810038 4236267#0 4236268 4238011 4238014 427173722 430284252 43136453 4328304#0 459818361 5234157 60921784 78714802 8136174#0 93670626" />
    <taz id="po_1067" color="red" edges="-20179292#0 -211129670#0 -224710092 -224710093#0 -224710093#1 -4232328 -4233643 -4233644#0 -4233644#1 -4233644#2 -4233645#0 102332984#0 125565909 20179292#0 211129670#1 224710093#1 4232328 4233643 4233644#0 4233644#1 4233644#2 4233645#0 4233645#1 4233646 530282945#0 530282945#1 624417041" />
    <taz id="po_1068" color="red" edges="-26368727 -4237993#0 -4237993#1 -5234137 -8136286#3 125565916 125858555#0 25508813 26368726#0 26368726#2 26368727 30140139 30140140 4237993#0 4237993#1 4237994 5234137 5234395#0 5234395#3 530282931 530282943 530282944 530282946 5369238 59740684 8136286#1" />
    <taz id="po_1069" color="red" edges="-10372364#1 -10372461 -126709272#0 -126709272#1 -127207622 -208548182 -208548184#0 -210457775#0 -210457775#1 -300060711 -300060712 -38807023 -4244653 -4244655 -5230785 -644345097 10372242 10372364#1 10372461 1080293510 125858541#0 125858543 125858557#0 126449197 126709272#1 126709272#2 127207622 208548182 210457775#0 210457775#1 24821689 24821927#1 30001657 30140135 328266345 38807023 4244653 4244655 428094262#0 51530168 5230785 5230807#1 644345097 707213178#0 707213179 707213227#0 707213248 971831434" />
    <taz id="po_1071" color="red" edges="-10372364#0 -10372376 -126140573#3 -126449197 -126449297#0 -126449297#1 -208548183 -208548185 -26369517 -321098627 -321098632#0 -328253307 -328253309#0 -328253310#0 -328253310#1 -328266344 -328266345 -4680624#0 -4680624#1 -704809565#1 10372364#0 10372376 126140557#0 126140564 126140573#0 126449238 126449297#0 126449297#1 126449309 126449314 126449315#0 126499972#2 161856844#0 161856847#0 188943669#0 208548184#1 219528064 26369517 30001653 30140137#0 30141563 321098632#1 321100880 321100881 328253309#1 328253310#0 328253310#1 328266344 4680624#0 4680624#1 5231370 704809565#0 707213180#0 707213180#4 707213207#0 890973612" />
    <taz id="po_1081" color="red" edges="-10420635#1 -192596506 -210994589 -210994591 -210994594#0 -210994594#1 -210994594#2 -210994594#3 -218601757#0 -218601759#0 -218601759#1 -218601759#2 -235040348 -251226534 -36244272 -364029241#0 -364031091 -364031092 -364031093 -364419352#0 -364419353#0 -364419353#1 -364586639 -364586640#0 -364586640#1 -4238025 -4238026 -4238028#0 -4238028#1 -4238089#0 -4238089#1 -4238090 -4246321 -4246322#0 -488345047 -700658601#1 -8597239 -8597240 10420635#1 151911876 151911878 192596478 192596506 210994589 210994592 210994594#1 210994594#2 210994594#3 211042370 218601759#1 218601759#2 235040348 251226534 327222564 327222565 327223064 327223065#0 327223065#1 327223066 327223067 327223068#0 327225380#0 327225382 327225383 36244272 364029241#0 364031091 364031092 364419352#0 364419353#1 364586639 364586640#0 364586640#1 364586640#2 364587095 4238025 4238026 4238027 4238028#0 4238028#1 4238089#1 4238090 4246321 4246322#0 4246322#1 488345045 488345046 488345047 4952748#1 4952750#1 4952752#1 4952778#0 4952778#1 53277461#2 53277461#3 700658601#1 700658602 799185034#2 799189288#1 799189288#2 799189293#0 8597239 8597240 87348360" />