<?xml version="1.0" encoding="UTF-8"?>

<!-- generated on 2024-03-20 19:01:17 by Eclipse SUMO netedit Version 1.19.0
-->

<additional xmlns:xsi="http://www.w3.org/2001/XMLSchema-instance" xsi:noNamespaceSchemaLocation="http://sumo.dlr.de/xsd/additional_file.xsd">
    <!-- Detectors -->
    <inductionLoop id="Niinisaarentie_1_0" lane="284131378_0" pos="20.00" period="3600.00" file="../output/simulation/reduced_detector_outputs/Niinisaarentie_1_output.xml"/>
    <inductionLoop id="Niinisaarentie_2_0" lane="-284131378_0" pos="20.00" period="3600.00" file="../output/simulation/reduced_detector_outputs/Niinisaarentie_2_output.xml"/>
    <inductionLoop id="kt45_Helsinki_Tuomarinkartano_1_0" lane="201115549_0" pos="50.00" period="3600.00" file="../output/simulation/reduced_detector_outputs/kt45_Helsinki_Tuomarinkartano_1_output.xml"/>
    <inductionLoop id="kt45_Helsinki_Tuomarinkartano_1_1" lane="201115549_1" pos="50.00" period="3600.00" file="../output/simulation/reduced_detector_outputs/kt45_Helsinki_Tuomarinkartano_1_output.xml"/>
    <inductionLoop id="kt45_Helsinki_Tuomarinkartano_2_0" lane="571601808_0" pos="50.00" period="3600.00" file="../output/simulation/reduced_detector_outputs/kt45_Helsinki_Tuomarinkartano_2_output.xml"/>
    <inductionLoop id="kt45_Helsinki_Tuomarinkartano_2_1" lane="571601808_1" pos="50.00" period="3600.00" file="../output/simulation/reduced_detector_outputs/kt45_Helsinki_Tuomarinkartano_2_output.xml"/>
    <inductionLoop id="kt45_Helsinki_Tuomarinkartano_2_2" lane="571601808_2" pos="50.00" period="3600.00" file="../output/simulation/reduced_detector_outputs/kt45_Helsinki_Tuomarinkartano_2_output.xml"/>
    <inductionLoop id="kt45_Oulunkyla_1_0" lane="131271487_0" pos="20.00" period="3600.00" file="../output/simulation/reduced_detector_outputs/kt45_Oulunkyla_1_output.xml"/>
    <inductionLoop id="kt45_Oulunkyla_1_1" lane="131271487_1" pos="20.00" period="3600.00" file="../output/simulation/reduced_detector_outputs/kt45_Oulunkyla_1_output.xml"/>
    <inductionLoop id="kt45_Oulunkyla_1_2" lane="131271487_2" pos="20.00" period="3600.00" file="../output/simulation/reduced_detector_outputs/kt45_Oulunkyla_1_output.xml"/>
    <inductionLoop id="kt45_Oulunkyla_2_0" lane="117654832#0_0" pos="20.00" period="3600.00" file="../output/simulation/reduced_detector_outputs/kt45_Oulunkyla_2_output.xml"/>
    <inductionLoop id="kt45_Oulunkyla_2_1" lane="117654832#0_1" pos="20.00" period="3600.00" file="../output/simulation/reduced_detector_outputs/kt45_Oulunkyla_2_output.xml"/>
    <inductionLoop id="kt45_Oulunkyla_2_2" lane="117654832#0_2" pos="20.00" period="3600.00" file="../output/simulation/reduced_detector_outputs/kt45_Oulunkyla_2_output.xml"/>
    <inductionLoop id="kt51_Hanasaari_1_0" lane="98102535_0" pos="50.00" period="3600.00" file="../output/simulation/reduced_detector_outputs/kt51_Hanasaari_1_output.xml"/>
    <inductionLoop id="kt51_Hanasaari_1_1" lane="98102535_1" pos="50.00" period="3600.00" file="../output/simulation/reduced_detector_outputs/kt51_Hanasaari_1_output.xml"/>
    <inductionLoop id="kt51_Hanasaari_1_2" lane="98102535_2" pos="50.00" period="3600.00" file="../output/simulation/reduced_detector_outputs/kt51_Hanasaari_1_output.xml"/>
    <inductionLoop id="kt51_Hanasaari_2_0" lane="29753283_0" pos="20.00" period="3600.00" file="../output/simulation/reduced_detector_outputs/kt51_Hanasaari_2_output.xml"/>
    <inductionLoop id="kt51_Hanasaari_2_1" lane="29753283_1" pos="20.00" period="3600.00" file="../output/simulation/reduced_detector_outputs/kt51_Hanasaari_2_output.xml"/>
    <inductionLoop id="kt51_Hanasaari_2_2" lane="29753283_2" pos="20.00" period="3600.00" file="../output/simulation/reduced_detector_outputs/kt51_Hanasaari_2_output.xml"/>
    <inductionLoop id="st100_Kivihaan_tunneli_1_0" lane="25153048_0" pos="400.00" period="3600.00" file="../output/simulation/reduced_detector_outputs/st100_Kivihaan_tunneli_1_output.xml"/>
    <inductionLoop id="st100_Kivihaan_tunneli_1_1" lane="25153048_1" pos="400.00" period="3600.00" file="../output/simulation/reduced_detector_outputs/st100_Kivihaan_tunneli_1_output.xml"/>
    <inductionLoop id="st100_Kivihaan_tunneli_2_0" lane="25153039#0_0" pos="50.00" period="3600.00" file="../output/simulation/reduced_detector_outputs/st100_Kivihaan_tunneli_2_output.xml"/>
    <inductionLoop id="st100_Kivihaan_tunneli_2_1" lane="25153039#0_1" pos="50.00" period="3600.00" file="../output/simulation/reduced_detector_outputs/st100_Kivihaan_tunneli_2_output.xml"/>
    <inductionLoop id="st101_Helsinki_Vartiokyla_1_0" lane="43547485_0" pos="20.00" period="3600.00" file="../output/simulation/reduced_detector_outputs/st101_Helsinki_Vartiokyla_1_output.xml"/>
    <inductionLoop id="st101_Helsinki_Vartiokyla_1_1" lane="43547485_1" pos="20.00" period="3600.00" file="../output/simulation/reduced_detector_outputs/st101_Helsinki_Vartiokyla_1_output.xml"/>
    <inductionLoop id="st101_Helsinki_Vartiokyla_2_0" lane="26344393_0" pos="20.00" period="3600.00" file="../output/simulation/reduced_detector_outputs/st101_Helsinki_Vartiokyla_2_output.xml"/>
    <inductionLoop id="st101_Helsinki_Vartiokyla_2_1" lane="26344393_1" pos="20.00" period="3600.00" file="../output/simulation/reduced_detector_outputs/st101_Helsinki_Vartiokyla_2_output.xml"/>
    <inductionLoop id="st101_Kannelmaki_1_0" lane="78714806_0" pos="20.00" period="3600.00" file="../output/simulation/reduced_detector_outputs/st101_Kannelmaki_1_output.xml"/>
    <inductionLoop id="st101_Kannelmaki_1_1" lane="78714806_1" pos="20.00" period="3600.00" file="../output/simulation/reduced_detector_outputs/st101_Kannelmaki_1_output.xml"/>
    <inductionLoop id="st101_Kannelmaki_1_2" lane="78714806_2" pos="20.00" period="3600.00" file="../output/simulation/reduced_detector_outputs/st101_Kannelmaki_1_output.xml"/>
    <inductionLoop id="st101_Kannelmaki_2_0" lane="301710114_0" pos="20.00" period="3600.00" file="../output/simulation/reduced_detector_outputs/st101_Kannelmaki_2_output.xml"/>
    <inductionLoop id="st101_Kannelmaki_2_1" lane="301710114_1" pos="20.00" period="3600.00" file="../output/simulation/reduced_detector_outputs/st101_Kannelmaki_2_output.xml"/>
    <inductionLoop id="st101_Kannelmaki_2_2" lane="301710114_2" pos="20.00" period="3600.00" file="../output/simulation/reduced_detector_outputs/st101_Kannelmaki_2_output.xml"/>
    <inductionLoop id="st101_Konala_1_0" lane="330016493_0" pos="500.00" period="3600.00" file="../output/simulation/reduced_detector_outputs/st101_Konala_1_output.xml"/>
    <inductionLoop id="st101_Konala_1_1" lane="330016493_1" pos="500.00" period="3600.00" file="../output/simulation/reduced_detector_outputs/st101_Konala_1_output.xml"/>
    <inductionLoop id="st101_Konala_1_2" lane="330016493_2" pos="500.00" period="3600.00" file="../output/simulation/reduced_detector_outputs/st101_Konala_1_output.xml"/>
    <inductionLoop id="st101_Konala_2_0" lane="330026282_0" pos="0.00" period="3600.00" file="../output/simulation/reduced_detector_outputs/st101_Konala_2_output.xml"/>
    <inductionLoop id="st101_Konala_2_1" lane="330026282_1" pos="0.00" period="3600.00" file="../output/simulation/reduced_detector_outputs/st101_Konala_2_output.xml"/>
    <inductionLoop id="st101_Konala_2_2" lane="330026282_2" pos="0.00" period="3600.00" file="../output/simulation/reduced_detector_outputs/st101_Konala_2_output.xml"/>
    <inductionLoop id="st101_Lansi-Pakila_1_0" lane="132816269_0" pos="20.00" period="3600.00" file="../output/simulation/reduced_detector_outputs/st101_Lansi-Pakila_1_output.xml"/>
    <inductionLoop id="st101_Lansi-Pakila_1_1" lane="132816269_1" pos="20.00" period="3600.00" file="../output/simulation/reduced_detector_outputs/st101_Lansi-Pakila_1_output.xml"/>
    <inductionLoop id="st101_Lansi-Pakila_1_2" lane="132816269_2" pos="20.00" period="3600.00" file="../output/simulation/reduced_detector_outputs/st101_Lansi-Pakila_1_output.xml"/>
    <inductionLoop id="st101_Lansi-Pakila_2_0" lane="4952731_0" pos="20.00" period="3600.00" file="../output/simulation/reduced_detector_outputs/st101_Lansi-Pakila_2_output.xml"/>
    <inductionLoop id="st101_Lansi-Pakila_2_1" lane="4952731_1" pos="20.00" period="3600.00" file="../output/simulation/reduced_detector_outputs/st101_Lansi-Pakila_2_output.xml"/>
    <inductionLoop id="st101_Lansi-Pakila_2_2" lane="4952731_2" pos="20.00" period="3600.00" file="../output/simulation/reduced_detector_outputs/st101_Lansi-Pakila_2_output.xml"/>
    <inductionLoop id="st101_Lansi-Pakila_2_3" lane="4952731_3" pos="20.00" period="3600.00" file="../output/simulation/reduced_detector_outputs/st101_Lansi-Pakila_2_output.xml"/>
    <inductionLoop id="st101_Malmi_1_0" lane="354079392_0" pos="20.00" period="3600.00" file="../output/simulation/reduced_detector_outputs/st101_Malmi_1_output.xml"/>
    <inductionLoop id="st101_Malmi_1_1" lane="354079392_1" pos="20.00" period="3600.00" file="../output/simulation/reduced_detector_outputs/st101_Malmi_1_output.xml"/>
    <inductionLoop id="st101_Malmi_2_0" lane="132933319_0" pos="20.00" period="3600.00" file="../output/simulation/reduced_detector_outputs/st101_Malmi_2_output.xml"/>
    <inductionLoop id="st101_Malmi_2_1" lane="132933319_1" pos="20.00" period="3600.00" file="../output/simulation/reduced_detector_outputs/st101_Malmi_2_output.xml"/>
    <inductionLoop id="st101_Pakila_1_0" lane="26185622_0" pos="20.00" period="3600.00" file="../output/simulation/reduced_detector_outputs/st101_Pakila_1_output.xml"/>
    <inductionLoop id="st101_Pakila_1_1" lane="26185622_1" pos="20.00" period="3600.00" file="../output/simulation/reduced_detector_outputs/st101_Pakila_1_output.xml"/>
    <inductionLoop id="st101_Pakila_1_2" lane="26185622_2" pos="20.00" period="3600.00" file="../output/simulation/reduced_detector_outputs/st101_Pakila_1_output.xml"/>
    <inductionLoop id="st101_Pakila_1_3" lane="26185622_3" pos="20.00" period="3600.00" file="../output/simulation/reduced_detector_outputs/st101_Pakila_1_output.xml"/>
    <inductionLoop id="st101_Pakila_2_0" lane="24404873_0" pos="20.00" period="3600.00" file="../output/simulation/reduced_detector_outputs/st101_Pakila_2_output.xml"/>
    <inductionLoop id="st101_Pakila_2_1" lane="24404873_1" pos="20.00" period="3600.00" file="../output/simulation/reduced_detector_outputs/st101_Pakila_2_output.xml"/>
    <inductionLoop id="st101_Pakila_2_2" lane="24404873_2" pos="20.00" period="3600.00" file="../output/simulation/reduced_detector_outputs/st101_Pakila_2_output.xml"/>
    <inductionLoop id="st101_Pakila_2_3" lane="24404873_3" pos="20.00" period="3600.00" file="../output/simulation/reduced_detector_outputs/st101_Pakila_2_output.xml"/>
    <inductionLoop id="st101_Pukinmaki_1_0" lane="25561690_0" pos="20.00" period="3600.00" file="../output/simulation/reduced_detector_outputs/st101_Pukinmaki_1_output.xml"/>
    <inductionLoop id="st101_Pukinmaki_1_1" lane="25561690_1" pos="20.00" period="3600.00" file="../output/simulation/reduced_detector_outputs/st101_Pukinmaki_1_output.xml"/>
    <inductionLoop id="st101_Pukinmaki_2_0" lane="25561761_0" pos="20.00" period="3600.00" file="../output/simulation/reduced_detector_outputs/st101_Pukinmaki_2_output.xml"/>
    <inductionLoop id="st101_Pukinmaki_2_1" lane="25561761_1" pos="20.00" period="3600.00" file="../output/simulation/reduced_detector_outputs/st101_Pukinmaki_2_output.xml"/>
    <inductionLoop id="st103_Satamatie_1_0" lane="121494987_0" pos="20.00" period="3600.00" file="../output/simulation/reduced_detector_outputs/st103_Satamatie_1_output.xml"/>
    <inductionLoop id="st103_Satamatie_1_1" lane="121494987_1" pos="20.00" period="3600.00" file="../output/simulation/reduced_detector_outputs/st103_Satamatie_1_output.xml"/>
    <inductionLoop id="st103_Satamatie_2_0" lane="231936745_0" pos="0.00" period="3600.00" file="../output/simulation/reduced_detector_outputs/st103_Satamatie_2_output.xml"/>
    <inductionLoop id="st103_Satamatie_2_1" lane="231936745_1" pos="0.00" period="3600.00" file="../output/simulation/reduced_detector_outputs/st103_Satamatie_2_output.xml"/>
    <inductionLoop id="st120_Pitajanmaki_1_0" lane="443551693_0" pos="20.00" period="3600.00" file="../output/simulation/reduced_detector_outputs/st120_Pitajanmaki_1_output.xml"/>
    <inductionLoop id="st120_Pitajanmaki_1_1" lane="443551693_1" pos="20.00" period="3600.00" file="../output/simulation/reduced_detector_outputs/st120_Pitajanmaki_1_output.xml"/>
    <inductionLoop id="st120_Pitajanmaki_1_2" lane="443551693_2" pos="20.00" period="3600.00" file="../output/simulation/reduced_detector_outputs/st120_Pitajanmaki_1_output.xml"/>
    <inductionLoop id="st120_Pitajanmaki_2_0" lane="243759680_0" pos="20.00" period="3600.00" file="../output/simulation/reduced_detector_outputs/st120_Pitajanmaki_2_output.xml"/>
    <inductionLoop id="st120_Pitajanmaki_2_1" lane="243759680_1" pos="20.00" period="3600.00" file="../output/simulation/reduced_detector_outputs/st120_Pitajanmaki_2_output.xml"/>
    <inductionLoop id="st170_Kulosaari_1_0" lane="23228988_0" pos="60.00" period="3600.00" file="../output/simulation/reduced_detector_outputs/st170_Kulosaari_1_output.xml"/>
    <inductionLoop id="st170_Kulosaari_1_1" lane="23228988_1" pos="60.00" period="3600.00" file="../output/simulation/reduced_detector_outputs/st170_Kulosaari_1_output.xml"/>
    <inductionLoop id="st170_Kulosaari_1_2" lane="23228988_2" pos="60.00" period="3600.00" file="../output/simulation/reduced_detector_outputs/st170_Kulosaari_1_output.xml"/>
    <inductionLoop id="st170_Kulosaari_2_0" lane="351247164_0" pos="0.00" period="3600.00" file="../output/simulation/reduced_detector_outputs/st170_Kulosaari_2_output.xml"/>
    <inductionLoop id="st170_Kulosaari_2_1" lane="351247164_1" pos="0.00" period="3600.00" file="../output/simulation/reduced_detector_outputs/st170_Kulosaari_2_output.xml"/>
    <inductionLoop id="st170_Kulosaari_2_2" lane="351247164_2" pos="0.00" period="3600.00" file="../output/simulation/reduced_detector_outputs/st170_Kulosaari_2_output.xml"/>
    <inductionLoop id="vt1_Munkkiniemi_1_0" lane="272043198_0" pos="0.00" period="3600.00" file="../output/simulation/reduced_detector_outputs/vt1_Munkkiniemi_1_output.xml"/>
    <inductionLoop id="vt1_Munkkiniemi_1_1" lane="272043198_1" pos="0.00" period="3600.00" file="../output/simulation/reduced_detector_outputs/vt1_Munkkiniemi_1_output.xml"/>
    <inductionLoop id="vt1_Munkkiniemi_2_0" lane="330192679_0" pos="0.00" period="3600.00" file="../output/simulation/reduced_detector_outputs/vt1_Munkkiniemi_2_output.xml"/>
    <inductionLoop id="vt1_Munkkiniemi_2_1" lane="330192679_1" pos="0.00" period="3600.00" file="../output/simulation/reduced_detector_outputs/vt1_Munkkiniemi_2_output.xml"/>
    <inductionLoop id="vt1_Munkkiniemi_2_2" lane="330192679_2" pos="0.00" period="3600.00" file="../output/simulation/reduced_detector_outputs/vt1_Munkkiniemi_2_output.xml"/>
    <inductionLoop id="vt3_Hakuninmaa_1_0" lane="207295788_0" pos="50.00" period="3600.00" file="../output/simulation/reduced_detector_outputs/vt3_Hakuninmaa_1_output.xml"/>
    <inductionLoop id="vt3_Hakuninmaa_1_1" lane="207295788_1" pos="50.00" period="3600.00" file="../output/simulation/reduced_detector_outputs/vt3_Hakuninmaa_1_output.xml"/>
    <inductionLoop id="vt3_Hakuninmaa_1_2" lane="207295788_2" pos="50.00" period="3600.00" file="../output/simulation/reduced_detector_outputs/vt3_Hakuninmaa_1_output.xml"/>
    <inductionLoop id="vt3_Hakuninmaa_2_0" lane="132855653_0" pos="50.00" period="3600.00" file="../output/simulation/reduced_detector_outputs/vt3_Hakuninmaa_2_output.xml"/>
    <inductionLoop id="vt3_Hakuninmaa_2_1" lane="132855653_1" pos="50.00" period="3600.00" file="../output/simulation/reduced_detector_outputs/vt3_Hakuninmaa_2_output.xml"/>
    <inductionLoop id="vt3_Hakuninmaa_2_2" lane="132855653_2" pos="50.00" period="3600.00" file="../output/simulation/reduced_detector_outputs/vt3_Hakuninmaa_2_output.xml"/>
    <inductionLoop id="vt3_Kivihaka_1_0" lane="41844429_0" pos="0.00" period="3600.00" file="../output/simulation/reduced_detector_outputs/vt3_Kivihaka_1_output.xml"/>
    <inductionLoop id="vt3_Kivihaka_1_1" lane="41844429_1" pos="0.00" period="3600.00" file="../output/simulation/reduced_detector_outputs/vt3_Kivihaka_1_output.xml"/>
    <inductionLoop id="vt3_Kivihaka_2_0" lane="314159875_0" pos="0.00" period="3600.00" file="../output/simulation/reduced_detector_outputs/vt3_Kivihaka_2_output.xml"/>
    <inductionLoop id="vt3_Kivihaka_2_1" lane="314159875_1" pos="0.00" period="3600.00" file="../output/simulation/reduced_detector_outputs/vt3_Kivihaka_2_output.xml"/>
    <inductionLoop id="vt3_Kivihaka_2_2" lane="314159875_2" pos="0.00" period="3600.00" file="../output/simulation/reduced_detector_outputs/vt3_Kivihaka_2_output.xml"/>
    <inductionLoop id="vt3_Pirkkola_1_0" lane="108954251_0" pos="20.00" period="3600.00" file="../output/simulation/reduced_detector_outputs/vt3_Pirkkola_1_output.xml"/>
    <inductionLoop id="vt3_Pirkkola_1_1" lane="108954251_1" pos="20.00" period="3600.00" file="../output/simulation/reduced_detector_outputs/vt3_Pirkkola_1_output.xml"/>
    <inductionLoop id="vt3_Pirkkola_2_0" lane="18647496_0" pos="20.00" period="3600.00" file="../output/simulation/reduced_detector_outputs/vt3_Pirkkola_2_output.xml"/>
    <inductionLoop id="vt3_Pirkkola_2_1" lane="18647496_1" pos="20.00" period="3600.00" file="../output/simulation/reduced_detector_outputs/vt3_Pirkkola_2_output.xml"/>
    <inductionLoop id="vt4_Jakomaki_1_0" lane="235669581_0" pos="1500.00" period="3600.00" file="../output/simulation/reduced_detector_outputs/vt4_Jakomaki_1_output.xml"/>
    <inductionLoop id="vt4_Jakomaki_1_1" lane="235669581_1" pos="1500.00" period="3600.00" file="../output/simulation/reduced_detector_outputs/vt4_Jakomaki_1_output.xml"/>
    <inductionLoop id="vt4_Jakomaki_2_0" lane="132797926_0" pos="800.00" period="3600.00" file="../output/simulation/reduced_detector_outputs/vt4_Jakomaki_2_output.xml"/>
    <inductionLoop id="vt4_Jakomaki_2_1" lane="132797926_1" pos="800.00" period="3600.00" file="../output/simulation/reduced_detector_outputs/vt4_Jakomaki_2_output.xml"/>
    <inductionLoop id="vt4_Viikinmaki_1_0" lane="172879174_0" pos="0.00" period="3600.00" file="../output/simulation/reduced_detector_outputs/vt4_Viikinmaki_1_output.xml"/>
    <inductionLoop id="vt4_Viikinmaki_1_1" lane="172879174_1" pos="0.00" period="3600.00" file="../output/simulation/reduced_detector_outputs/vt4_Viikinmaki_1_output.xml"/>
    <inductionLoop id="vt4_Viikinmaki_1_2" lane="172879174_2" pos="0.00" period="3600.00" file="../output/simulation/reduced_detector_outputs/vt4_Viikinmaki_1_output.xml"/>
    <inductionLoop id="vt4_Viikinmaki_2_0" lane="206112920_0" pos="1000.00" period="3600.00" file="../output/simulation/reduced_detector_outputs/vt4_Viikinmaki_2_output.xml"/>
    <inductionLoop id="vt4_Viikinmaki_2_1" lane="206112920_1" pos="1000.00" period="3600.00" file="../output/simulation/reduced_detector_outputs/vt4_Viikinmaki_2_output.xml"/>
    <inductionLoop id="vt4_Viikinmaki_2_2" lane="206112920_2" pos="1000.00" period="3600.00" file="../output/simulation/reduced_detector_outputs/vt4_Viikinmaki_2_output.xml"/>
    <inductionLoop id="vt7_Helsinki_Backnas_1_0" lane="125604928_0" pos="1500.00" period="3600.00" file="../output/simulation/reduced_detector_outputs/vt7_Helsinki_Backnas_1_output.xml"/>
    <inductionLoop id="vt7_Helsinki_Backnas_1_1" lane="125604928_1" pos="1500.00" period="3600.00" file="../output/simulation/reduced_detector_outputs/vt7_Helsinki_Backnas_1_output.xml"/>
    <inductionLoop id="vt7_Helsinki_Backnas_2_0" lane="156341823_0" pos="2000.00" period="3600.00" file="../output/simulation/reduced_detector_outputs/vt7_Helsinki_Backnas_2_output.xml"/>
    <inductionLoop id="vt7_Helsinki_Backnas_2_1" lane="156341823_1" pos="2000.00" period="3600.00" file="../output/simulation/reduced_detector_outputs/vt7_Helsinki_Backnas_2_output.xml"/>
    <inductionLoop id="vt7_Helsinki_Itasalmi_1_0" lane="125604917_0" pos="20.00" period="3600.00" file="../output/simulation/reduced_detector_outputs/vt7_Helsinki_Itasalmi_1_output.xml"/>
    <inductionLoop id="vt7_Helsinki_Itasalmi_1_1" lane="125604917_1" pos="20.00" period="3600.00" file="../output/simulation/reduced_detector_outputs/vt7_Helsinki_Itasalmi_1_output.xml"/>
    <inductionLoop id="vt7_Helsinki_Itasalmi_2_0" lane="125604922_0" pos="20.00" period="3600.00" file="../output/simulation/reduced_detector_outputs/vt7_Helsinki_Itasalmi_2_output.xml"/>
    <inductionLoop id="vt7_Helsinki_Itasalmi_2_1" lane="125604922_1" pos="20.00" period="3600.00" file="../output/simulation/reduced_detector_outputs/vt7_Helsinki_Itasalmi_2_output.xml"/>
    <!-- Shapes -->
    <poly id="po_0" color="91,255,0" fill="0" layer="0.00" name="area 1" shape="131464.215421,77138.951802 139529.322053,77068.733212 139950.633593,73307.023029 138365.699703,71962.838591 131283.653332,72073.182089 131464.215421,77138.951802"/>
    <poly id="po_1" color="91,255,0" fill="0" layer="0.00" name="area 1" geo="1" shape="24.853516,60.236230 24.952883,60.248078 24.955979,60.238001 24.955187,60.206160 24.891656,60.204398 24.865486,60.203979 24.852035,60.235285 24.853516,60.236230"/>
    <poly id="po_2" color="91,255,0" fill="0" layer="0.00" name="area 1" shape="130368.230000,79431.580000 132812.200000,79639.310000 139587.840000,80031.440000 143536.500000,79639.310000 143262.920000,75781.850000 143135.250000,74213.330000 143180.840000,71523.130000 143188.140000,69911.750000 132123.700000,70002.040000 130368.230000,79431.580000"/>
</additional>
