<?xml version="1.0" encoding="UTF-8"?>
<additional xmlns:xsi="http://www.w3.org/2001/XMLSchema-instance" xsi:noNamespaceSchemaLocation="http://sumo.dlr.de/xsd/additional_file.xsd">
    <!-- Shapes -->
    <poly id="po_28501" color="red" fill="0" layer="0.00" shape="172866.1153271095,103627.4613960674 172715.1762189693,103587.47683469299 172482.27015230662,103549.49110366777 172517.2564367183,103396.55291932635 172365.31795153042,103361.56621465366 172240.3677533065,103461.5253965063 172240.36726597542,103532.49732916895 171907.50151455912,103469.52065576799 171665.59903346302,103437.53186987527 171744.56752245213,103359.56449339073 171902.5047441865,103246.6102735959 171840.53030437048,103126.6581503423 171769.55901576774,103097.66989178117 171706.58389922677,103216.62146126665 171430.695318057,103096.66789745726 171426.69722411424,103003.70549563877 171375.71805366848,102973.7176101869 171336.73361097046,103024.69663850032 171231.77580536206,102969.7186282957 171233.7756762088,102894.7482451275 171161.80450995665,102874.75642593298 171141.81208843386,102967.71882022545 171088.8335447764,102922.73672557436 170957.88622790543,102922.73539706971 170961.88437292087,102999.70485084224 170875.91915980252,102981.7114880262 170812.94455731733,102888.74886911176 170679.99827715426,102854.76184866205 170620.02223669543,102946.72408552095 170647.01081505298,103008.70012143534 170509.0660173101,103140.6456179237 170396.11123299287,103106.65923022013 170300.14986351793,103160.6370015461 170256.1669903825,103236.60634194035 169578.44008927591,103111.6531355083 169613.42662855823,103034.68488777708 169392.5159626207,102983.70422124024 169227.58207822786,102956.71392175835 168963.68862844913,102849.75559144095 168823.7452668932,102839.75919119455 168808.75084608214,102908.73107211106 168930.7015728889,102975.70479015633 168423.90599783344,102901.73204460833 166603.6396335515,102604.84203243535 166345.74335805888,102593.84599485993 166136.82749028262,102551.86239621602 166114.83599608342,102623.83277168125 164837.83197102658,102658.90231051855 164834.83854695395,102735.87455940619 164898.8113453183,102743.86905878223 164910.80549691818,102821.8411761038 164820.8349668349,102898.8006424997 164961.7649183823,104691.08226208389 164766.83688619515,105755.63909539673 164537.92089901326,106152.47051699646 164402.9800792467,106447.34886963293 164391.9870468,106505.31630332675 164275.02214960373,106840.18515379727 164110.09044795812,107311.99010816682 164069.10369358,107435.93834530376 164000.1229900235,107876.7564852871 164102.07262424382,109223.21206193883 166704.3788131109,110090.79197528027 166999.2955560659,110190.26670470368 167567.9208760302,110193.33845492266 168859.54668465073,110798.88595376909 168879.68663025778,110296.75939911418 170252.13444982198,110318.75714961626 170270.1352668789,108659.42451305315 171076.8107857875,108659.42825310491 171100.81057751333,106636.24335851427 171409.68663539007,106652.23749759421 171420.68565498226,105964.51505478751 171875.5023666007,105946.5239759665 171894.49616230399,105628.6523988815 172879.10035118143,105628.65660885628 172866.1153271095,103627.4613960674"/>
    <poly id="po_28502" color="red" fill="0" layer="0.00" shape="175878.8434332451,115996.50015481655 175869.8610000287,113137.65018190164 175892.86861489216,109628.06149540562 177351.28185500184,109620.07234028261 177349.28737875042,108627.47229167819 177363.30501064964,103853.39266131911 177005.44606321145,104443.15347876493 176880.49720842435,104289.21504986752 176382.70067140818,103595.49163721316 174439.49473192732,100995.52797186002 174367.52291442527,101219.43719685171 174362.5237883147,101393.36788998265 174294.55105115697,101504.32220568229 174071.6384293268,101961.13841904141 174044.64861442786,102103.08053547423 174068.63785379232,102334.98766563833 174009.6605296537,102483.927533295 173801.74312663722,102773.80984539818 173766.75670014418,102856.77594000101 173680.78920589216,103256.61464101076 173603.81937355179,103406.55465257447 173558.83675228807,103617.46922040172 173534.84521574443,103848.37644253206 173480.86651283913,103965.32897812128 173454.87510376927,104303.19314962067 173332.924087911,104292.19661311153 173304.9366144704,104024.30417247396 173235.96449677876,103994.3163366532 173214.97344190467,103898.35437725857 173238.96437753612,103763.4087738404 173113.01551790713,103695.43550429586 172866.1153271095,103627.4613960674 172879.10035118143,105628.65660885628 171894.49616230399,105628.6523988815 171875.5023666007,105946.5239759665 171420.68565498226,105964.51505478751 171409.68663539007,106652.23749759421 171100.81057751333,106636.24335851427 171076.8107857875,108659.42825310491 170270.1352668789,108659.42451305315 170252.13444982198,110318.75714961626 168879.68663025778,110296.75939911418 168859.54668465073,110798.88595376909 169215.16986081263,111877.6278335508 169156.56364449338,112051.05259527452 169149.45485400016,112229.3216039855 169320.427149298,112226.9069494931 169615.69801591648,113117.17457306292 169708.7969978331,113376.49665153306 170294.1002576057,113917.30950543657 169756.31403579577,114496.07455591112 169656.35245794084,114864.92520219181 169968.22602714287,114976.88222171552 170058.190741936,114832.93974567764 170555.98944114303,115041.85829306394 170396.05321316255,115144.81653181557 170917.84259030796,115355.73399525229 171142.74802117635,116193.39881169423 171881.45012821493,116349.33882836718 171935.43082224307,115819.55203272216 171998.40748818815,115424.71100145765 173324.8682620557,116568.25819396321 173064.97075395597,117051.06272470392 173976.60385402114,117027.07608958986 173908.63215819726,116788.17163605802 173815.66976900023,116756.1847466277 173759.69357233788,116552.2655358389 173884.64378988327,116448.30871866643 173888.64259993323,116303.36630448978 173937.62373271628,116118.44165435806 174053.57776426393,116026.47915545106 174176.52718812515,116258.38636374567 174410.43324949648,116206.40865483508 174435.4252884748,115797.57289829105 174604.35702624093,115813.56713717058 174586.3625711381,116193.41534506436 175766.88826811934,116051.4772250466 175878.8434332451,115996.50015481655"/>
    <poly id="po_28503" color="red" fill="0" layer="0.00" shape="186473.6109367784,109810.04028223548 182877.0623526768,108855.40669643413 182913.04798829652,108791.43245765101 182927.0427860214,108710.46511068195 182883.0608512646,108653.98767708614 182870.06667237295,108546.53121674247 182856.07265966167,108458.56604831945 182910.05162587742,108314.62405824848 182917.5490639809,108221.1620306978 182988.0212036375,108154.68926182296 182985.0229434866,108074.72062896192 183025.0070075173,108032.73807824776 183042.00053567623,107923.78191674035 183157.95418171215,107866.80558255501 183205.93499703056,107789.83660676144 183273.90796141574,107755.85107408464 183323.88870482033,107628.90253017657 183375.86806238876,107542.9372088639 183382.86566210413,107460.97061997 183326.88811578605,107409.99027982354 183390.86283418184,107335.02142568398 183362.8754531,107039.13971325941 183264.91662590488,106764.24979717284 183220.9344985125,106703.2737706285 183213.9376345819,106645.29784911126 183154.96167932104,106520.3473549271 183190.94801492142,106427.38558697514 183143.96699627736,106381.40410840325 183128.97321901345,106320.42794087715 183094.9871960789,106233.4625057336 183046.00743815853,106196.47761261929 182961.04214215928,106074.52619489282 182621.1778844782,106238.4579338152 182211.34503979297,105753.65131730959 181371.68869714942,104554.13014353439 181509.6335046109,104452.17182046454 181502.63679126467,104375.2026837254 181651.57732099868,104289.23792584613 181365.69571236803,103623.50412407517 181060.8211545505,102992.75700008031 181022.83833685637,102632.90142537095 180933.87436121565,102632.90151190292 180898.8895781498,102396.99537208024 180822.92053383173,102299.03453581594 180775.9402615228,102113.10887938552 180308.12900757583,101970.1643701829 180119.2047573458,102049.13153636083 179888.09784360704,102076.1195438318 179881.30006108046,102149.09013464302 179808.32931178538,102185.07496058289 179747.35298756798,102308.02553489897 179560.4278782142,102416.98141658772 179481.45971772642,102354.00605313107 179353.5115521831,102359.00304999575 179324.52359831586,102293.02977203857 179237.05835019602,102300.52652410697 178823.7246702181,102310.0203410685 178393.89494513106,102869.79383670259 178312.92771343482,102814.8149712747 178184.97814544596,103007.7367649218 178229.9598554756,103048.72049395926 178179.97982235762,103131.68722499907 177502.2503973349,103586.50077085942 177433.27799089692,103632.4817187516 177445.27278870033,103712.45017008483 177363.30501064964,103853.39266131911 177349.28737875042,108627.47229167819 177351.28185500184,109620.07234028261 175892.86861489216,109628.06149540562 175869.8610000287,113137.65018190164 175878.8434332451,115996.50015481655 176060.77049177236,115975.50958798267 176141.73755498228,116060.47551818099 176332.66092812186,116040.48438178282 176418.62613331535,116031.48831434455 176542.5765122168,116019.49441163987 176525.5838098371,115860.55797030404 176884.4421011484,115397.74582978431 176887.43962546976,115656.64228261728 176751.49259074018,115967.51530533377 177202.30854654478,116573.27359579317 177653.1248894042,116991.10827249847 179865.2419111211,115534.70520023722 180278.07508720199,115654.65901736543 183611.74162981755,114080.30800296832 183631.2346276966,113945.86168864742 183676.7165475758,113832.40796980169 183794.66913522113,113807.41911165323 183943.610295616,113618.49514471088 185597.95482428544,111572.32720377296 186118.74981945622,110602.71907122247 186473.6109367784,109810.04028223548"/>
    <poly id="po_17501" color="red" fill="0" layer="0.00" shape="26497.277911482583,41184.8346269764 26672.204059371987,41879.55637261458 26887.11322007797,42734.21425533667 27472.87839017177,42686.23592438456 27836.738389001548,41498.71519197989 28190.600684874138,40568.090873805806 28473.491203264362,39832.38805603515 28606.438737849152,39572.4931089282 28950.304340629926,38900.76508436352 28481.499781818682,37554.302981711924 27982.707324710704,36153.86311297212 27617.85924445794,35116.278602887876 25174.884276724217,26840.59186282102 11963.19184366343,27046.43945413269 13860.403051364381,32093.421624506824 16364.362346422422,38712.77495752275 16773.18285631566,41614.61145857535 18635.439875547803,40597.0294497665 24710.993301618175,41622.64882800728 24832.944641190552,41592.66202417761 26497.277911482583,41184.8346269764"/>
    <poly id="po_17502" color="red" fill="0" layer="0.00" shape="33779.37242615645,37224.46354902163 34194.2161546018,35214.2741294913 34667.06946004162,26902.616443205625 25174.884276724217,26840.59186282102 27617.85924445794,35116.278602887876 27982.707324710704,36153.86311297212 28481.499781818682,37554.302981711924 28950.304340629926,38900.76508436352 28606.438737849152,39572.4931089282 28473.491203264362,39832.38805603515 29414.10733048714,40917.9563182462 30321.73955584169,41536.71221798938 30803.55001115022,40777.02093025483 31162.408258447394,40247.23476266861 31485.28150804373,39702.4559751004 32645.8215516005,38463.9600582663 33779.37242615645,37224.46354902163"/>
    <poly id="po_17504" color="red" fill="0" layer="0.00" shape="35279.73514667424,43819.82098575402 35453.671775439434,42556.329067588784 35194.7791412636,41950.57106824592 32964.674035676784,42190.46406744793 32295.93735738998,43219.04657900147 30991.461764877808,43204.046512705274 31092.420896015567,43259.02495184168 31218.370147538983,43307.00676319469 31173.387739076075,43389.971843094565 31097.418361463904,43327.996860994026 30964.472332484816,43282.01445679832 30991.461764877808,43204.046512705274 30614.613299157092,43203.04511741828 30617.6112048419,43299.006226689555 30136.802699066844,43650.862501725554 32613.789510021248,47076.499018751085 34237.13717611789,47073.508399200626 34945.85182604162,47190.464695497416 35302.71208658596,46522.73538520932 34471.04984749391,45798.02179070283 35080.80910008095,44951.36494682729 35279.73514667424,43819.82098575402"/>
    <poly id="po_17503" color="red" fill="0" layer="0.00" shape="30991.461764877808,43204.046512705274 32295.93735738998,43219.04657900147 32964.674035676784,42190.46406744793 35194.7791412636,41950.57106824592 35453.671775439434,42556.329067588784 36252.35492950553,41760.65363216307 37969.66826694555,41147.90889829118 36489.272325290454,39382.610129371285 36341.332130813884,39287.6477645142 33779.37242615645,37224.46354902163 32645.8215516005,38463.9600582663 31485.28150804373,39702.4559751004 31162.408258447394,40247.23476266861 30803.55001115022,40777.02093025483 30321.73955584169,41536.71221798938 29414.10733048714,40917.9563182462 28473.491203264362,39832.38805603515 28190.600684874138,40568.090873805806 27836.738389001548,41498.71519197989 29558.036715539085,43430.94784951676 30002.856094307062,43792.80499053933 30136.802699066844,43650.862501725554 30617.6112048419,43299.006226689555 30614.613299157092,43203.04511741828 30991.461764877808,43204.046512705274"/>
    <poly id="po_17505" color="red" fill="0" layer="0.00" shape="39600.01239500279,41220.887984470464 37969.66826694555,41147.90889829118 36252.35492950553,41760.65363216307 35453.671775439434,42556.329067588784 35279.73514667424,43819.82098575402 36336.3137231743,43238.060636816546 36449.265988763334,43700.87529441342 37397.882640351454,44095.72143113054 37578.80783969237,44483.56588076614 37748.739068816794,44602.51899781171 38643.382073413086,44092.7293282561 38635.38608531401,43925.795911891386 39600.01239500279,41220.887984470464"/>
    <poly id="po_17508" color="red" fill="0" layer="0.00" shape="41783.143004948884,39671.521951808594 41546.24003471897,39321.66145784501 41231.37014779812,38682.91615488101 41687.19230718384,37662.32878180407 43004.66367090194,37434.4267291585 42761.76816291656,36115.95581542142 42985.68237267775,35294.28785748687 41349.352313248004,32973.211459851824 38581.495936465886,26960.613297837786 34667.06946004162,26902.616443205625 34194.2161546018,35214.2741294913 33779.37242615645,37224.46354902163 36341.332130813884,39287.6477645142 36489.272325290454,39382.610129371285 37969.66826694555,41147.90889829118 39600.01239500279,41220.887984470464 41783.143004948884,39671.521951808594"/>
    <poly id="po_17506" color="red" fill="0" layer="0.00" shape="43830.30444035659,42731.30310667213 43541.423169624846,42252.49407057464 43115.591752329,42789.276019435376 42669.771070026705,42737.29493357055 42379.88900067241,42499.388061056845 42157.97757819746,42526.376326569356 41836.10777703361,42427.4145714296 41565.218445284205,42009.58122728672 41779.13356025066,41844.64804533683 41870.0982419333,41606.74460990075 42224.956038698816,41556.76668971777 42760.741283840995,41378.840492981486 41783.143004948884,39671.521951808594 39600.01239500279,41220.887984470464 38635.38608531401,43925.795911891386 38643.382073413086,44092.7293282561 37748.739068816794,44602.51899781171 38551.41351226639,45199.283658004366 39071.20309379281,45452.184306088835 39759.921766869404,46353.825934388675 40454.64542353197,45786.05773287825 40763.521153898706,45799.05437962897 40908.46274103844,45822.04508676473 41056.40553226744,45424.20659898035 41337.29402045303,45202.29702827614 42437.85812308683,43927.81511447299 43108.5925254233,43152.13015503809 43830.30444035659,42731.30310667213"/>
    <poly id="po_17507" color="red" fill="0" layer="0.00" shape="43541.423169624846,42252.49407057464 43275.53209416653,41811.66969124414 42760.741283840995,41378.840492981486 42224.956038698816,41556.76668971777 41870.0982419333,41606.74460990075 41779.13356025066,41844.64804533683 41565.218445284205,42009.58122728672 41836.10777703361,42427.4145714296 42157.97757819746,42526.376326569356 42379.88900067241,42499.388061056845 42669.771070026705,42737.29493357055 43115.591752329,42789.276019435376 43541.423169624846,42252.49407057464"/>
    <poly id="po_24001" color="red" fill="0" layer="0.00" shape="136692.47604531088,143059.4284285186 137407.1981892543,141104.2178233983 136787.45952690628,138545.24318397976 135683.90718097068,137756.55529620498 133168.92891460643,135539.4349556109 133193.9159642907,136189.17420970183 133088.95797536915,136167.18209991604 132764.2897806643,135957.86511161737 132290.27928749743,136120.19735695422 132271.2878521915,136003.2444434492 132098.35708370255,136041.22844466008 132157.33263022386,136211.1606232943 131928.42398495626,136324.1141007673 132075.363104714,136643.9854690442 131488.59785309204,136945.36180376448 131369.64577320803,136949.85902016982 130938.81812358942,137125.787080626 130855.85251298934,136899.8770774901 130764.88907413525,136892.8791742418 130667.92758661023,136985.84103304334 130269.08741303472,137159.7692385381 130309.07202826891,136997.83479604032 130147.13708753281,137011.8290798869 130099.15590251065,137099.79289315548 130048.17571509213,137272.72315708082 129936.22054508017,137276.72064906172 129385.43960917127,137817.50187743735 129289.47774383347,137844.48976525478 129259.48968626841,137955.44567531813 128915.62686462738,138100.3850372648 128855.65174144894,137970.43790519144 127720.10584548759,138542.2013315903 127542.17695058367,138564.19226136245 127358.25102429508,138587.18222266156 127360.2475694863,139098.97583432402 127076.36184789173,139089.97854866087 127025.38428864625,138725.12499475107 126669.52745806208,138711.1295394497 126576.56331537475,138971.02396726236 126748.4917772536,139545.79327930603 126816.4634677193,139775.70223545656 127038.37174051467,140263.505700659 127226.29402126538,140673.34208451118 127563.15212609919,142022.80184610467 127809.04878712303,143005.40753386822 129063.54328365464,143195.33672928438 130629.91298185577,143346.28353287838 130705.8829076635,143169.35478488076 130778.85484094048,142987.42931194603 130830.83456803396,142817.49778139498 130896.80857986564,142668.5576965185 131008.76465109581,142500.62529252283 131144.7091640552,142654.5646770848 131217.6794838706,142754.52494775504 131248.66613937504,142923.45662714355 131210.68042190213,143111.38064039685 131175.69364949976,143252.32402389776 131158.700085494,143361.28019403946 131202.6816080909,143484.23066068534 131258.65910446076,143588.18981279247 131287.64644131568,143740.12831369787 131266.65434336328,143905.06276962813 131248.6607778856,144029.01202236768 131270.65143665185,144148.9641872961 131376.60801390375,144271.91485084593 131531.54510632876,144422.85463267192 131644.49918701683,144506.82148832455 131723.46718060566,144590.7885929728 131795.43749577718,144728.7328624418 131838.4195236032,144885.67052187677 131922.38520029912,145002.6239388408 132004.35221115852,145072.59610968363 132090.3105658375,146559.9983809935 134004.54243195374,146191.1561065968 133957.56201127105,146068.20531249698 133890.5890500619,145976.2413686905 133871.5973506541,145903.2705910392 133929.57419069394,145822.3037679838 133876.59609230168,145752.33210687432 133827.61593027916,145716.3464034954 133799.62744730923,145655.36974361166 133869.59918270438,145594.39480727445 133932.57451773298,145498.43412856758 133983.55487877675,145380.48216150887 134064.52235605838,145281.5222041672 134174.4788175637,145222.5465595955 134254.4466342229,145145.57725226786 134292.4318680766,145042.61916185264 134280.4373103252,144952.6551297214 134308.42631147782,144847.69741969183 134406.38740093823,144767.72986851912 134517.34314491125,144724.7476411471 134660.28586774218,144705.7565999385 134762.24474126907,144678.7674283767 134874.20052298196,144546.82136148773 134989.1550243737,144412.8754806677 135115.10441874553,144328.90986661427 135300.03074579345,144274.93287462927 135422.980961755,144256.93986047618 135515.94408823436,144208.9603725737 135622.9014072425,144112.00007179566 135772.84155375374,144033.03133666236 135939.77505362473,143927.0754133165 136014.74488736407,143839.1116414899 135912.78661326683,143716.16050730925 136001.75133218666,143619.19903812278 135932.77993275595,143483.25415227655 136144.69486608732,143454.2664747415 136191.67617457823,143376.29744568374 136277.6415438774,143375.29922397807 136300.63327971802,143202.36822837126 136421.58430289183,143230.35791346245 136514.54765064435,143125.40097968467 136352.61301538153,143076.4190556556 136421.58553223914,143032.43730492983 136526.54297605602,143015.44453141466 136621.50512924706,143020.4434440406 136692.47604531088,143059.4284285186"/>
    <poly id="po_24004" color="red" fill="0" layer="0.00" shape="136707.52297392712,131947.89666591864 137873.0651089699,129714.80081108864 138550.78827747333,130622.43765840214 138593.7838431033,127934.51938846894 138095.5188988413,124663.88316825405 138095.4625301168,124592.70957602933 138122.72003997062,124524.22257326078 138202.9012328304,124321.27651267126 138242.56840741498,124219.90652792249 138014.28060209446,124151.09513986018 137960.44299082548,124224.06376129016 137454.185621148,123991.84307699837 137429.25497858334,123783.41483177803 137410.70165345966,123633.64662695304 137392.5057093978,123480.66652232129 137018.72199755305,123526.56006044056 136864.51274960904,123544.30982363876 136175.49457317006,123629.34267278016 135986.496661511,123639.58175540343 135976.57879140638,123540.17546375468 135970.90891250482,123412.04661676195 135959.74082187287,123255.97582221776 135900.2239016985,123179.98692997731 135352.20518945824,123215.11842411198 135086.15509788654,123215.90604825038 134952.29494485233,123216.28357118927 134840.53971856917,123216.63272391167 134761.86327735838,123211.02396263927 134672.7466245451,123217.24004632514 134556.80981003938,123217.72559415456 134475.11896203025,123218.43991754763 134395.5780311878,123214.86782670021 134304.75508686082,123218.73420773447 134221.944122131,123219.070534328 134147.92991767518,123219.36932293698 134064.61138492418,123219.7083976455 133837.72635688758,123220.65205177013 133770.71759820209,123221.01344216894 133668.5559987738,123221.5585506875 133540.90355463323,123222.24100281764 133365.60765569654,123222.98039116617 133290.987516992,123223.29482192546 133106.6342492434,123224.23641603626 132962.5597985454,123224.99808474537 132942.21483106192,123341.23816480115 132935.06392098407,123664.36450107768 132933.07197487398,123848.46423280332 132889.40521795643,124014.93461652473 132853.55704770147,123844.06206695363 132861.2393821001,123677.00647863653 132891.8077960921,123225.60215524025 132719.94613614274,123227.30234166328 132716.6438039009,124004.71716860123 132737.15376314367,124850.73145938013 132758.14161690112,125629.4185300041 132450.26207029916,126341.13069060165 132313.3172477878,126287.15204905439 132314.31585013834,126514.06095106527 131749.5376047622,127549.64173073042 131154.7747165831,128028.44610601477 131448.1552426114,128347.81866767444 131694.55528440638,128500.2597395517 131795.5153259297,128425.28988770023 131855.49061150503,128461.27521905117 131730.5394434432,128806.13644094672 132414.26319786606,129119.01368221268 132496.23074828685,128975.07194663119 132745.13004156513,129068.03564640321 132639.17188570663,129230.96929293592 132516.22181843207,129154.99941806402 132415.2617628202,129349.9205019772 132593.189831869,129423.89170641638 132244.32742263426,129919.69075125083 132329.2933403829,129978.66817050613 132593.18385030216,130666.3921669051 132655.15819211092,130827.32846186776 132866.07315091128,130822.33082987834 132853.07743358586,131054.23683749698 132961.03286316848,131236.16444912832 133147.9571363814,131401.09985570703 133158.951695114,131618.01154339686 133162.94977673495,131697.98040644825 133544.79619330613,131670.99302073568 133396.8534437838,132124.8094675718 133292.8951508786,132128.80783618707 133291.89526362318,132215.7725306591 133297.8924094582,132295.74047321454 133393.8538073532,132301.73795971274 133393.85327406562,132387.70395929273 133370.8611165417,132708.57490241062 134087.57207809578,132920.49352815282 134716.3214155051,132441.68860711157 136707.52297392712,131947.89666591864"/>
    <poly id="po_24003" color="red" fill="0" layer="0.00" shape="145099.11162793144,130137.32753352448 145592.25443945345,128970.44173078984 146445.9516847474,127256.6953357067 147439.08159707751,124452.89171153493 147909.25930200404,123123.11443523876 147849.3435950938,123013.82012065966 147304.79698358747,123198.67202384677 146863.09261020346,123350.21237387136 145809.79841337688,123711.51338167768 145587.9071441591,123787.82943241298 145187.80088493906,123924.7799445279 145108.649307485,123973.6330319522 145057.40514215434,124118.48495201766 144943.05459804359,124434.75092702545 144845.41223790383,124701.40742396936 144822.14761362164,124764.23154025339 144798.2153272841,124829.75483191758 144740.8718444384,124988.3952438645 144693.0349157738,125118.88213967253 144598.85331679866,125139.34164238162 144438.11921648672,125173.1969897952 144153.3184853817,125234.60438424163 144120.41777178357,125408.03506285604 143915.809954635,125522.77283594478 143793.30882901154,125590.69406760577 143756.96259801564,125647.99912501406 143694.5103485878,125745.62326336838 143496.2804443989,125627.68430637382 143403.26938204633,125573.13837307226 143351.01103553464,125407.15194668807 142776.69765227012,125530.26128820982 142495.62473039227,125500.26363400184 141953.38837725416,125442.72391028795 141859.28421719468,125432.64957622625 141726.20878537584,125418.11814548727 141543.00579272842,125397.77603490464 141459.37397386858,125388.98745497875 141373.19451532318,125379.83144571073 140573.72080001052,125295.04452085402 140244.78860786374,125209.85055528767 140037.4866556451,125158.41877218056 139643.20021757393,125057.93736746442 139496.74426817548,125016.81726881396 139432.88253359546,124999.62412319612 139299.14224913993,124966.87101903372 138990.13812026315,124890.01054289285 138905.89619278218,124868.38935726788 138666.40689620344,124808.54251639917 138095.5188988413,124663.88316825405 138593.7838431033,127934.51938846894 138550.78827747333,130622.43765840214 137873.0651089699,129714.80081108864 136707.52297392712,131947.89666591864 134716.3214155051,132441.68860711157 134087.57207809578,132920.49352815282 133370.8611165417,132708.57490241062 133147.95101103155,132667.5902541019 132869.06092542087,133108.41140102595 132838.73979661075,133157.05870701838 133372.85629455032,133582.22331827227 132915.03752321462,134213.96741422825 132686.1295784129,134142.9942877302 132800.0847981265,133953.07127116993 132471.21840432673,133670.18422687612 132485.21125233234,134005.04865922406 132360.26105747334,134034.03692528233 133011.99357258112,135246.5519878948 133168.92891460643,135539.4349556109 135683.90718097068,137756.55529620498 136787.45952690628,138545.24318397976 137645.11035550808,139449.88374877814 138500.77097334017,138469.28228587843 139207.4854800348,138684.1991098728 139167.50635079984,137653.61339887977 140218.08303707358,137860.53555042483 140276.05575105027,138743.18022191897 140824.83500812438,138706.19821343012 140905.80434234082,138311.35746468138 141219.67849237678,138247.3843180118 141103.72941410312,137361.73992814217 140763.86614253573,137293.7661979003 140930.80353056968,136328.15472970437 140881.83252066254,134463.90438639093 141443.60642585394,134465.90603281185 141893.42380156266,134768.7866423726 141820.46496973743,132380.74685295857 142108.3482853206,132491.70410977583 142405.22786917447,132775.59019711148 142515.18412540507,132611.65768186934 144600.3473477127,132265.80581247527 145099.11162793144,130137.32753352448"/>