<?xml version="1.0" encoding="utf-8"?>
<routes>
 <vType color="green" id="taxi" personCapacity="2" vClass="taxi">
  <param key="has.taxi.device" value="true"/>
  <param key="device.taxi.pickUpDuration" value="0"/>
  <param key="device.taxi.dropOffDuration" value="10"/>
  <param key="device.taxi.parking" value="true"/>
 </vType>
 <trip depart="0" from="-125351148" id="t0" to="-305322857#0" type="taxi"/>
 <trip depart="0" from="-38281640#0" id="t1" to="1040326468" type="taxi"/>
 <trip depart="0" from="82259061" id="t2" to="-94124135" type="taxi"/>
 <trip depart="0" from="-101521565" id="t3" to="157858318#3" type="taxi"/>
 <trip depart="0" from="236551998" id="t4" to="6935800#0" type="taxi"/>
 <trip depart="0" from="-42792917#0" id="t5" to="125591002" type="taxi"/>
 <trip depart="0" from="13632229" id="t6" to="993029179#0" type="taxi"/>
 <trip depart="0" from="34151614" id="t7" to="848433709" type="taxi"/>
 <trip depart="0" from="307141234" id="t8" to="-24429416" type="taxi"/>
 <trip depart="0" from="-75732865" id="t9" to="191253804" type="taxi"/>
 <trip depart="0" from="-295993399" id="t10" to="-74310614" type="taxi"/>
 <trip depart="0" from="6927774" id="t11" to="310282682" type="taxi"/>
 <trip depart="0" from="15242073#0" id="t12" to="63134322#1" type="taxi"/>
 <trip depart="0" from="30261872#0" id="t13" to="-95195865#4" type="taxi"/>
 <trip depart="0" from="-442728372" id="t14" to="-24049140#1" type="taxi"/>
 <trip depart="0" from="80497803#1" id="t15" to="-40537228" type="taxi"/>
 <trip depart="0" from="-14994763" id="t16" to="1041933135" type="taxi"/>
 <trip depart="0" from="-117093574" id="t17" to="-77461833#0" type="taxi"/>
 <trip depart="0" from="-38281640#1" id="t18" to="-61888744" type="taxi"/>
 <trip depart="0" from="24428921" id="t19" to="154659315" type="taxi"/>
 <trip depart="0" from="30690522#0" id="t20" to="-61367419#2" type="taxi"/>
 <trip depart="0" from="-138368251" id="t21" to="4644970" type="taxi"/>
 <trip depart="0" from="-94087971" id="t22" to="5205204" type="taxi"/>
 <trip depart="0" from="204247887" id="t23" to="142497098" type="taxi"/>
 <trip depart="0" from="-63113207" id="t24" to="24552706" type="taxi"/>
 <trip depart="0" from="1020573134" id="t25" to="-74317523#0" type="taxi"/>
 <trip depart="0" from="108200488" id="t26" to="-62060308" type="taxi"/>
 <trip depart="0" from="32461045#0" id="t27" to="24662114#0" type="taxi"/>
 <trip depart="0" from="40436955#1" id="t28" to="-17459579#0" type="taxi"/>
 <trip depart="0" from="24564493" id="t29" to="-6935460" type="taxi"/>
 <trip depart="0" from="-371261956" id="t30" to="15878017" type="taxi"/>
 <trip depart="0" from="4468794" id="t31" to="122529102#1" type="taxi"/>
 <trip depart="0" from="-24552576" id="t32" to="442031137#0" type="taxi"/>
 <trip depart="0" from="48719672" id="t33" to="-5051707" type="taxi"/>
 <trip depart="0" from="177401368#0" id="t34" to="30289501" type="taxi"/>
 <trip depart="0" from="10557655" id="t35" to="118864079#2" type="taxi"/>
 <trip depart="0" from="143671682" id="t36" to="38455341#0" type="taxi"/>
 <trip depart="0" from="-5047215" id="t37" to="118155452#0" type="taxi"/>
 <trip depart="0" from="30326685#1" id="t38" to="285150553" type="taxi"/>
 <trip depart="0" from="115798764" id="t39" to="-61410699#0" type="taxi"/>
 <trip depart="0" from="582286857" id="t40" to="-26127182#2" type="taxi"/>
 <trip depart="0" from="4680630" id="t41" to="541611408" type="taxi"/>
 <trip depart="0" from="-61367443" id="t42" to="143671682" type="taxi"/>
 <trip depart="0" from="-62070348" id="t43" to="24453161" type="taxi"/>
 <trip depart="0" from="-116049443#2" id="t44" to="25361892#3" type="taxi"/>
 <trip depart="0" from="30528972#0" id="t45" to="4565191#2" type="taxi"/>
 <trip depart="0" from="-63322102#0" id="t46" to="107736952" type="taxi"/>
 <trip depart="0" from="-183753335" id="t47" to="593108314" type="taxi"/>
 <trip depart="0" from="125143985#0" id="t48" to="42743946" type="taxi"/>
 <trip depart="0" from="147633302#1" id="t49" to="-95952109" type="taxi"/>
 <trip depart="0" from="-217557859#2" id="t50" to="-4644941#3" type="taxi"/>
 <trip depart="0" from="76733552#0" id="t51" to="51740733" type="taxi"/>
 <trip depart="0" from="-108505622" id="t52" to="193507691" type="taxi"/>
 <trip depart="0" from="83510232#1" id="t53" to="15928588#2" type="taxi"/>
 <trip depart="0" from="76737569" id="t54" to="-78535771" type="taxi"/>
 <trip depart="0" from="-125143988#1" id="t55" to="28241504" type="taxi"/>
 <trip depart="0" from="-62519938" id="t56" to="-4872847" type="taxi"/>
 <trip depart="0" from="-83818486" id="t57" to="195720443" type="taxi"/>
 <trip depart="0" from="195720446" id="t58" to="-128504972" type="taxi"/>
 <trip depart="0" from="-314256365#0" id="t59" to="43199883#0" type="taxi"/>
 <trip depart="0" from="61280133#1" id="t60" to="84023980" type="taxi"/>
 <trip depart="0" from="-330898875" id="t61" to="-72728809" type="taxi"/>
 <trip depart="0" from="113586390#1" id="t62" to="-122529096#5" type="taxi"/>
 <trip depart="0" from="206110388#0" id="t63" to="-333156356" type="taxi"/>
 <trip depart="0" from="309477782#0" id="t64" to="-138350780#0" type="taxi"/>
 <trip depart="0" from="-134239748#3" id="t65" to="34151520" type="taxi"/>
 <trip depart="0" from="4246321" id="t66" to="44680915" type="taxi"/>
 <trip depart="0" from="509802404" id="t67" to="4238027" type="taxi"/>
 <trip depart="0" from="96597366#1" id="t68" to="-317560495" type="taxi"/>
 <trip depart="0" from="40542147" id="t69" to="-39014988" type="taxi"/>
 <trip depart="0" from="116761612#0" id="t70" to="40801556" type="taxi"/>
 <trip depart="0" from="297640900#2" id="t71" to="-95799435" type="taxi"/>
 <trip depart="0" from="-61491729" id="t72" to="-8159593" type="taxi"/>
 <trip depart="0" from="10377170" id="t73" to="-71315890" type="taxi"/>
 <trip depart="0" from="210457775#0" id="t74" to="-51306014" type="taxi"/>
 <trip depart="0" from="137012062#1" id="t75" to="-212694591" type="taxi"/>
 <trip depart="0" from="74322492#1" id="t76" to="-362993458" type="taxi"/>
 <trip depart="0" from="-140373543" id="t77" to="-125351126#0" type="taxi"/>
 <trip depart="0" from="60949087" id="t78" to="-111720721" type="taxi"/>
 <trip depart="0" from="366616515" id="t79" to="-151616414" type="taxi"/>
 <trip depart="0" from="30603092" id="t80" to="-136721672" type="taxi"/>
 <trip depart="0" from="61970060" id="t81" to="4565192#0" type="taxi"/>
 <trip depart="0" from="-5234278#1" id="t82" to="106089939#1" type="taxi"/>
 <trip depart="0" from="-25615043#1" id="t83" to="46596604#0" type="taxi"/>
 <trip depart="0" from="-15928588#4" id="t84" to="-301079501" type="taxi"/>
 <trip depart="0" from="24423403#0" id="t85" to="4682936#1" type="taxi"/>
 <trip depart="0" from="84531018" id="t86" to="261374485#7" type="taxi"/>
 <trip depart="0" from="24426767#0" id="t87" to="5047248" type="taxi"/>
 <trip depart="0" from="-38281640#0" id="t88" to="15881544#2" type="taxi"/>
 <trip depart="0" from="120464288" id="t89" to="-63540900#1" type="taxi"/>
 <trip depart="0" from="633051823" id="t90" to="-10426011#1" type="taxi"/>
 <trip depart="0" from="44168794" id="t91" to="-4554311" type="taxi"/>
 <trip depart="0" from="4439874" id="t92" to="-353000469" type="taxi"/>
 <trip depart="0" from="284889646" id="t93" to="207709517" type="taxi"/>
 <trip depart="0" from="30472577#0" id="t94" to="10426053#2" type="taxi"/>
 <trip depart="0" from="-333322581" id="t95" to="-38957693" type="taxi"/>
 <trip depart="0" from="-581706511#0" id="t96" to="-129827612#0" type="taxi"/>
 <trip depart="0" from="262038604" id="t97" to="17129961#0" type="taxi"/>
 <trip depart="0" from="4220763" id="t98" to="-22980724" type="taxi"/>
 <trip depart="0" from="40608738" id="t99" to="-62115255" type="taxi"/>
 <trip depart="0" from="359509037" id="t100" to="-359652547#3" type="taxi"/>
 <trip depart="0" from="-5079846#0" id="t101" to="20359648#6" type="taxi"/>
 <trip depart="0" from="5042037" id="t102" to="313656936" type="taxi"/>
 <trip depart="0" from="53380714#1" id="t103" to="30242137#0" type="taxi"/>
 <trip depart="0" from="-158882487#2" id="t104" to="-117643624" type="taxi"/>
 <trip depart="0" from="-59737641" id="t105" to="219022022" type="taxi"/>
 <trip depart="0" from="-26698200" id="t106" to="-79821517" type="taxi"/>
 <trip depart="0" from="117649872" id="t107" to="-26003360#0" type="taxi"/>
 <trip depart="0" from="-217945957" id="t108" to="-770900877" type="taxi"/>
 <trip depart="0" from="-38703770" id="t109" to="-21052315#0" type="taxi"/>
 <trip depart="0" from="76779516" id="t110" to="93485182#1" type="taxi"/>
 <trip depart="0" from="-117625593" id="t111" to="177554072" type="taxi"/>
 <trip depart="0" from="-73848387" id="t112" to="1015671439" type="taxi"/>
 <trip depart="0" from="44503434#1" id="t113" to="-147633302#2" type="taxi"/>
 <trip depart="0" from="-5235996#3" id="t114" to="122529102#1" type="taxi"/>
 <trip depart="0" from="-230515581#1" id="t115" to="26037066" type="taxi"/>
 <trip depart="0" from="14573382#2" id="t116" to="720325888" type="taxi"/>
 <trip depart="0" from="5067351#1" id="t117" to="-125589739#1" type="taxi"/>
 <trip depart="0" from="674203193#0" id="t118" to="331377546" type="taxi"/>
 <trip depart="0" from="-95100609" id="t119" to="138067566#1" type="taxi"/>
 <trip depart="0" from="285137501" id="t120" to="-5235996#5" type="taxi"/>
 <trip depart="0" from="-4644958" id="t121" to="4952748#1" type="taxi"/>
 <trip depart="0" from="-231402126#0" id="t122" to="4216414#1" type="taxi"/>
 <trip depart="0" from="-345972757#0" id="t123" to="-5235996#6" type="taxi"/>
 <trip depart="0" from="34261692#0" id="t124" to="-75513737" type="taxi"/>
 <trip depart="0" from="125689487#0" id="t125" to="-113586418" type="taxi"/>
 <trip depart="0" from="27204698#1" id="t126" to="24404873" type="taxi"/>
 <trip depart="0" from="-14573382#0" id="t127" to="-122573577" type="taxi"/>
 <trip depart="0" from="175129268" id="t128" to="166533651" type="taxi"/>
 <trip depart="0" from="210994592" id="t129" to="1020573134" type="taxi"/>
 <trip depart="0" from="160797734" id="t130" to="-101521565" type="taxi"/>
 <trip depart="0" from="-28631236#1" id="t131" to="-266161715#3" type="taxi"/>
 <trip depart="0" from="-88478899" id="t132" to="-96397912" type="taxi"/>
 <trip depart="0" from="339760447" id="t133" to="-5042402" type="taxi"/>
 <trip depart="0" from="-62115992#0" id="t134" to="51194571#2" type="taxi"/>
 <trip depart="0" from="-112892716" id="t135" to="101156627#1" type="taxi"/>
 <trip depart="0" from="-79850590" id="t136" to="-39301851#0" type="taxi"/>
 <trip depart="0" from="30587323#0" id="t137" to="24031456#0" type="taxi"/>
 <trip depart="0" from="42743946" id="t138" to="-61367409" type="taxi"/>
 <trip depart="0" from="-116920225" id="t139" to="-63107848#0" type="taxi"/>
 <trip depart="0" from="-396594311#0" id="t140" to="-5094345#1" type="taxi"/>
 <trip depart="0" from="-367001370" id="t141" to="-125371794#3" type="taxi"/>
 <trip depart="0" from="116712800#0" id="t142" to="84656705" type="taxi"/>
 <trip depart="0" from="61645641" id="t143" to="117093566#1" type="taxi"/>
 <trip depart="0" from="20358379#0" id="t144" to="-4343796" type="taxi"/>
 <trip depart="0" from="18383774#1" id="t145" to="127605220#1" type="taxi"/>
 <trip depart="0" from="-632149254#0" id="t146" to="-313656937" type="taxi"/>
 <trip depart="0" from="-10516236" id="t147" to="32016029#5" type="taxi"/>
 <trip depart="0" from="4261811" id="t148" to="54200565" type="taxi"/>
 <trip depart="0" from="15928588#2" id="t149" to="-51340242" type="taxi"/>
 <trip depart="0" from="35873188" id="t150" to="-179967083#0" type="taxi"/>
 <trip depart="0" from="-30140997" id="t151" to="-5137917" type="taxi"/>
 <trip depart="0" from="30471452#0" id="t152" to="-183388564#2" type="taxi"/>
 <trip depart="0" from="328836208" id="t153" to="30288295" type="taxi"/>
 <trip depart="0" from="-62161917" id="t154" to="-145737637#0" type="taxi"/>
 <trip depart="0" from="189765350" id="t155" to="42676340#0" type="taxi"/>
 <trip depart="0" from="-61367412" id="t156" to="-84017998" type="taxi"/>
 <trip depart="0" from="138350778#1" id="t157" to="10508974#1" type="taxi"/>
 <trip depart="0" from="61367419#1" id="t158" to="30914194" type="taxi"/>
 <trip depart="0" from="-127328156" id="t159" to="38683914#0" type="taxi"/>
 <trip depart="0" from="-30001656" id="t160" to="106089939#0" type="taxi"/>
 <trip depart="0" from="-44531404" id="t161" to="9640099" type="taxi"/>
 <trip depart="0" from="-74053291" id="t162" to="183247520" type="taxi"/>
 <trip depart="0" from="-5239877" id="t163" to="-28740320#0" type="taxi"/>
 <trip depart="0" from="15878017" id="t164" to="40436955#1" type="taxi"/>
 <trip depart="0" from="-126852898" id="t165" to="-968592406#0" type="taxi"/>
 <trip depart="0" from="133113961" id="t166" to="96596615#1" type="taxi"/>
 <trip depart="0" from="6516565#1" id="t167" to="30289257" type="taxi"/>
 <trip depart="0" from="-28857347" id="t168" to="24429368-AddedOffRampEdge" type="taxi"/>
 <trip depart="0" from="131698834" id="t169" to="140559218" type="taxi"/>
 <trip depart="0" from="-156117446#0" id="t170" to="85044863#0" type="taxi"/>
 <trip depart="0" from="59700824" id="t171" to="-4261808" type="taxi"/>
 <trip depart="0" from="-265232859#0" id="t172" to="308586584#0" type="taxi"/>
 <trip depart="0" from="396449088#1" id="t173" to="-126344297#2" type="taxi"/>
 <trip depart="0" from="139506292#1" id="t174" to="24429416" type="taxi"/>
 <trip depart="0" from="-5067357#0" id="t175" to="117649862#1" type="taxi"/>
 <trip depart="0" from="217695968#1" id="t176" to="-137353416" type="taxi"/>
 <trip depart="0" from="-63540896" id="t177" to="-4644472" type="taxi"/>
 <trip depart="0" from="-180589953" id="t178" to="84531018" type="taxi"/>
 <trip depart="0" from="-132855663#0" id="t179" to="26378883" type="taxi"/>
 <trip depart="0" from="287050888" id="t180" to="-87339326" type="taxi"/>
 <trip depart="0" from="61269616#0" id="t181" to="210965536#1" type="taxi"/>
 <trip depart="0" from="260427034" id="t182" to="-126382099" type="taxi"/>
 <trip depart="0" from="582330415#0" id="t183" to="6522799" type="taxi"/>
 <trip depart="0" from="352689596#0" id="t184" to="-329836527" type="taxi"/>
 <trip depart="0" from="307653254" id="t185" to="-84018033" type="taxi"/>
 <trip depart="0" from="160632153#2" id="t186" to="-358438893" type="taxi"/>
 <trip depart="0" from="208428245" id="t187" to="-61412729" type="taxi"/>
 <trip depart="0" from="285621711#0" id="t188" to="118155452#0" type="taxi"/>
 <trip depart="0" from="-212687238" id="t189" to="-87397772" type="taxi"/>
 <trip depart="0" from="-321098627" id="t190" to="-25950076#1" type="taxi"/>
 <trip depart="0" from="335559222" id="t191" to="-6522799" type="taxi"/>
 <trip depart="0" from="-30471449" id="t192" to="1060577928#4" type="taxi"/>
 <trip depart="0" from="26426336" id="t193" to="-125371794#0" type="taxi"/>
 <trip depart="0" from="-60008945#2" id="t194" to="-4238018#2" type="taxi"/>
 <trip depart="0" from="-62064083" id="t195" to="24582834" type="taxi"/>
 <trip depart="0" from="-36878390#3" id="t196" to="-157858318#2" type="taxi"/>
 <trip depart="0" from="36878390#4" id="t197" to="354391205#0" type="taxi"/>
 <trip depart="0" from="105208820#2" id="t198" to="85734075#1" type="taxi"/>
 <trip depart="0" from="-45873418" id="t199" to="-42557001#0" type="taxi"/>
 <trip depart="0" from="26378883" id="t200" to="221166764" type="taxi"/>
 <trip depart="0" from="703967788#0" id="t201" to="286404309" type="taxi"/>
 <trip depart="0" from="-5048644" id="t202" to="116761613" type="taxi"/>
 <trip depart="0" from="10560541#2" id="t203" to="266188545" type="taxi"/>
 <trip depart="0" from="42405223" id="t204" to="126709272#2" type="taxi"/>
 <trip depart="0" from="-129785059#0" id="t205" to="-352992051" type="taxi"/>
 <trip depart="0" from="37972616" id="t206" to="-575155921" type="taxi"/>
 <trip depart="0" from="-62057537" id="t207" to="58265986#0" type="taxi"/>
 <trip depart="0" from="-234540368" id="t208" to="-16345612#0" type="taxi"/>
 <trip depart="0" from="-219760625" id="t209" to="-160807826#1" type="taxi"/>
 <trip depart="0" from="78060839#0" id="t210" to="285133708" type="taxi"/>
 <trip depart="0" from="24423960" id="t211" to="30326720#1" type="taxi"/>
 <trip depart="0" from="63107848#0" id="t212" to="61186559" type="taxi"/>
 <trip depart="0" from="-10420635#1" id="t213" to="722929060" type="taxi"/>
 <trip depart="0" from="-24423403#6" id="t214" to="781401379" type="taxi"/>
 <trip depart="0" from="-77461833#0" id="t215" to="-359652547#3" type="taxi"/>
 <trip depart="0" from="-32016029#3" id="t216" to="6926949#1" type="taxi"/>
 <trip depart="0" from="-5095178#0" id="t217" to="62112126" type="taxi"/>
 <trip depart="0" from="-212694590" id="t218" to="10561499" type="taxi"/>
 <trip depart="0" from="-76180072" id="t219" to="-75511979#0" type="taxi"/>
 <trip depart="0" from="24423403#12" id="t220" to="24399329" type="taxi"/>
 <trip depart="0" from="-125482061" id="t221" to="-96809683#0" type="taxi"/>
 <trip depart="0" from="-6847586#0" id="t222" to="139219223#1" type="taxi"/>
 <trip depart="0" from="-117654817" id="t223" to="-5038075" type="taxi"/>
 <trip depart="0" from="-117649850#1" id="t224" to="-295972499" type="taxi"/>
 <trip depart="0" from="373028325" id="t225" to="-8597242#2" type="taxi"/>
 <trip depart="0" from="-286418441" id="t226" to="5234741" type="taxi"/>
 <trip depart="0" from="75393596#1" id="t227" to="-95385987" type="taxi"/>
 <trip depart="0" from="285128161" id="t228" to="-78343358#0" type="taxi"/>
 <trip depart="0" from="-5079846#0" id="t229" to="-63107848#0" type="taxi"/>
 <trip depart="0" from="127604675#2" id="t230" to="416539515" type="taxi"/>
 <trip depart="0" from="-22982192#0" id="t231" to="-61565232#0" type="taxi"/>
 <trip depart="0" from="-190072454#1" id="t232" to="-330920155" type="taxi"/>
 <trip depart="0" from="-224710093#0" id="t233" to="61410692#1" type="taxi"/>
 <trip depart="0" from="4260514" id="t234" to="290255300" type="taxi"/>
 <trip depart="0" from="-352992051" id="t235" to="-5234464" type="taxi"/>
 <trip depart="0" from="74696847" id="t236" to="122590735#0" type="taxi"/>
 <trip depart="0" from="-160321184" id="t237" to="590527703" type="taxi"/>
 <trip depart="0" from="4952731" id="t238" to="14573382#2" type="taxi"/>
 <trip depart="0" from="-142497100#0" id="t239" to="-79240121" type="taxi"/>
 <trip depart="0" from="9637962#2" id="t240" to="126709272#2" type="taxi"/>
 <trip depart="0" from="125351134#1" id="t241" to="74491707#2" type="taxi"/>
 <trip depart="0" from="-71284393" id="t242" to="-80338645" type="taxi"/>
 <trip depart="0" from="35605874#0" id="t243" to="-39644113#2" type="taxi"/>
 <trip depart="0" from="8102548" id="t244" to="-302368831#0" type="taxi"/>
 <trip depart="0" from="23198366#0" id="t245" to="300960417" type="taxi"/>
 <trip depart="0" from="-230900987" id="t246" to="5065975" type="taxi"/>
 <trip depart="0" from="-157858318#2" id="t247" to="-212694593#2" type="taxi"/>
 <trip depart="0" from="5042022" id="t248" to="-121497105" type="taxi"/>
 <trip depart="0" from="-4343685#5" id="t249" to="26349564#2" type="taxi"/>
 <trip depart="0" from="-217763498#1" id="t250" to="122590740" type="taxi"/>
 <trip depart="0" from="-332253063#1" id="t251" to="4326296#2" type="taxi"/>
 <trip depart="0" from="39407805" id="t252" to="-39014988" type="taxi"/>
 <trip depart="0" from="-10363301" id="t253" to="-209845131" type="taxi"/>
 <trip depart="0" from="8597240" id="t254" to="24466644#0" type="taxi"/>
 <trip depart="0" from="126709272#2" id="t255" to="-35605874#0" type="taxi"/>
 <trip depart="0" from="161182980#0" id="t256" to="5042168#0" type="taxi"/>
 <trip depart="0" from="162352616" id="t257" to="-117464032" type="taxi"/>
 <trip depart="0" from="58422330" id="t258" to="-264086641" type="taxi"/>
 <trip depart="0" from="25153039#0" id="t259" to="-333156359#0" type="taxi"/>
 <trip depart="0" from="-133113824" id="t260" to="-117541447" type="taxi"/>
 <trip depart="0" from="-546942446#0" id="t261" to="23228988" type="taxi"/>
 <trip depart="0" from="5074230" id="t262" to="-5235996#4" type="taxi"/>
 <trip depart="0" from="15243204" id="t263" to="-4261930" type="taxi"/>
 <trip depart="0" from="-121659801#0" id="t264" to="-177401369" type="taxi"/>
 <trip depart="0" from="107287649#0" id="t265" to="-4263482" type="taxi"/>
 <trip depart="0" from="-5137866" id="t266" to="-28631236#1" type="taxi"/>
 <trip depart="0" from="4238091#0" id="t267" to="-136721671" type="taxi"/>
 <trip depart="0" from="-5042402" id="t268" to="724880047" type="taxi"/>
 <trip depart="0" from="-4229447#0" id="t269" to="4683037-AddedOffRampEdge" type="taxi"/>
 <trip depart="0" from="-10426053#2" id="t270" to="7918124#3" type="taxi"/>
 <trip depart="0" from="-95937941#0" id="t271" to="-149107332" type="taxi"/>
 <trip depart="0" from="-415081056#0" id="t272" to="-305326862" type="taxi"/>
 <trip depart="0" from="4261986" id="t273" to="97678787#1" type="taxi"/>
 <trip depart="0" from="-114183032" id="t274" to="-313541546" type="taxi"/>
 <trip depart="0" from="-122388448#0" id="t275" to="-87397772" type="taxi"/>
 <trip depart="0" from="-142035169#3" id="t276" to="-109874905#2" type="taxi"/>
 <trip depart="0" from="24436439" id="t277" to="102332987#0" type="taxi"/>
 <trip depart="0" from="4263977#1" id="t278" to="35607776" type="taxi"/>
 <trip depart="0" from="-42711360" id="t279" to="-265232859#0" type="taxi"/>
 <trip depart="0" from="212688462#0" id="t280" to="-4246321" type="taxi"/>
 <trip depart="0" from="30980474" id="t281" to="308586583#1" type="taxi"/>
 <trip depart="0" from="7918124#8" id="t282" to="-442599097#0" type="taxi"/>
 <trip depart="0" from="-38659335" id="t283" to="-211043505" type="taxi"/>
 <trip depart="0" from="191545684" id="t284" to="-332304408" type="taxi"/>
 <trip depart="0" from="4996807" id="t285" to="46596600" type="taxi"/>
 <trip depart="0" from="839717755" id="t286" to="-61565968" type="taxi"/>
 <trip depart="0" from="4680630" id="t287" to="-86527656" type="taxi"/>
 <trip depart="0" from="10558792" id="t288" to="416539515" type="taxi"/>
 <trip depart="0" from="-32016029#0" id="t289" to="24423403#11" type="taxi"/>
 <trip depart="0" from="151874347" id="t290" to="30682488#1" type="taxi"/>
 <trip depart="0" from="-125589739#1" id="t291" to="-140822427" type="taxi"/>
 <trip depart="0" from="-42557002" id="t292" to="364586640#1" type="taxi"/>
 <trip depart="0" from="-88113499#1" id="t293" to="-192591535#1" type="taxi"/>
 <trip depart="0" from="-10373960" id="t294" to="20045694#3" type="taxi"/>
 <trip depart="0" from="-211199290#1" id="t295" to="-62116506#0" type="taxi"/>
 <trip depart="0" from="-61381675#2" id="t296" to="137296865" type="taxi"/>
 <trip depart="0" from="781401379" id="t297" to="-78494552" type="taxi"/>
 <trip depart="0" from="-132047178" id="t298" to="-4700931" type="taxi"/>
 <trip depart="0" from="331361889" id="t299" to="-125351199#2" type="taxi"/>
 <trip depart="0" from="30263537" id="t300" to="309474376" type="taxi"/>
 <trip depart="0" from="97836595" id="t301" to="-14433921#1" type="taxi"/>
 <trip depart="0" from="44382934" id="t302" to="122529102#1" type="taxi"/>
 <trip depart="0" from="30528972#0" id="t303" to="45825451#1" type="taxi"/>
 <trip depart="0" from="608143511" id="t304" to="-51340242" type="taxi"/>
 <trip depart="0" from="-62519938" id="t305" to="-26468567" type="taxi"/>
 <trip depart="0" from="352992059" id="t306" to="-62057537" type="taxi"/>
 <trip depart="0" from="321801466#1" id="t307" to="-84333174#0" type="taxi"/>
 <trip depart="0" from="195550961#1" id="t308" to="158033990#1" type="taxi"/>
 <trip depart="0" from="-154659318#1" id="t309" to="-131119750" type="taxi"/>
 <trip depart="0" from="-77608974#0" id="t310" to="-116712800#0" type="taxi"/>
 <trip depart="0" from="-101372216" id="t311" to="-117649862#0" type="taxi"/>
 <trip depart="0" from="-125693711" id="t312" to="-4685937#1" type="taxi"/>
 <trip depart="0" from="-24423403#7" id="t313" to="30470974" type="taxi"/>
 <trip depart="0" from="358440324" id="t314" to="-84639209" type="taxi"/>
 <trip depart="0" from="-75392937#0" id="t315" to="125351110" type="taxi"/>
 <trip depart="0" from="-72150992" id="t316" to="-10426113#0" type="taxi"/>
 <trip depart="0" from="27520209#1" id="t317" to="-14573382#3" type="taxi"/>
 <trip depart="0" from="-30016028#2" id="t318" to="61367454#1" type="taxi"/>
 <trip depart="0" from="-126389506#0" id="t319" to="5761267#3" type="taxi"/>
 <trip depart="0" from="-27404368#1" id="t320" to="4463199" type="taxi"/>
 <trip depart="0" from="-6276513" id="t321" to="15242125" type="taxi"/>
 <trip depart="0" from="-797819200" id="t322" to="10558745" type="taxi"/>
 <trip depart="0" from="-314424822#0" id="t323" to="-10421231" type="taxi"/>
 <trip depart="0" from="36732507" id="t324" to="352824587" type="taxi"/>
 <trip depart="0" from="24423960" id="t325" to="-358441042#0" type="taxi"/>
 <trip depart="0" from="4872915#0" id="t326" to="4341571#1" type="taxi"/>
 <trip depart="0" from="301192516#0" id="t327" to="-15738409" type="taxi"/>
 <trip depart="0" from="-122529100" id="t328" to="132855670" type="taxi"/>
 <trip depart="0" from="208548184#1" id="t329" to="261374485#4" type="taxi"/>
 <trip depart="0" from="-367006381" id="t330" to="-147633302#2" type="taxi"/>
 <trip depart="0" from="-4233519" id="t331" to="-5067346#1" type="taxi"/>
 <trip depart="0" from="30472579" id="t332" to="-61270477#0" type="taxi"/>
 <trip depart="0" from="79850590" id="t333" to="-10560448#0" type="taxi"/>
 <trip depart="0" from="-4220244#0" id="t334" to="38674840" type="taxi"/>
 <trip depart="0" from="62789947#2" id="t335" to="257036220#1" type="taxi"/>
 <trip depart="0" from="193507686" id="t336" to="-329836527" type="taxi"/>
 <trip depart="0" from="59700824" id="t337" to="107736956#0" type="taxi"/>
 <trip depart="0" from="-147628763#0" id="t338" to="301079498#1" type="taxi"/>
 <trip depart="0" from="140497659#0" id="t339" to="24423960" type="taxi"/>
 <trip depart="0" from="-125351167#0" id="t340" to="-300981184#0" type="taxi"/>
 <trip depart="0" from="125589425#0" id="t341" to="124540761#1" type="taxi"/>
 <trip depart="0" from="-117654815#3" id="t342" to="-126548897" type="taxi"/>
 <trip depart="0" from="80340374" id="t343" to="-4261808" type="taxi"/>
 <trip depart="0" from="34733210" id="t344" to="-4343799" type="taxi"/>
 <trip depart="0" from="5012118" id="t345" to="29509219#0" type="taxi"/>
 <trip depart="0" from="-220370231#1" id="t346" to="-797006272" type="taxi"/>
 <trip depart="0" from="15242735" id="t347" to="-10561826" type="taxi"/>
 <trip depart="0" from="45180352" id="t348" to="-157059846" type="taxi"/>
 <trip depart="0" from="-442599097#0" id="t349" to="-287182274#1" type="taxi"/>
 <trip depart="0" from="358690815" id="t350" to="-61270751" type="taxi"/>
 <trip depart="0" from="-10363301" id="t351" to="212688462#0" type="taxi"/>
 <trip depart="0" from="-37296677" id="t352" to="-125351161#0" type="taxi"/>
 <trip depart="0" from="-141058679" id="t353" to="-125589533" type="taxi"/>
 <trip depart="0" from="53682403#2" id="t354" to="30529010#1" type="taxi"/>
 <trip depart="0" from="-261374489#0" id="t355" to="4261967#0" type="taxi"/>
 <trip depart="0" from="81178423#0" id="t356" to="415081056#0" type="taxi"/>
 <trip depart="0" from="-8135855" id="t357" to="20045694#0" type="taxi"/>
 <trip depart="0" from="8102541" id="t358" to="-330920155" type="taxi"/>
 <trip depart="0" from="44382936" id="t359" to="-8058345" type="taxi"/>
 <trip depart="0" from="161735523" id="t360" to="24424098" type="taxi"/>
 <trip depart="0" from="62112126" id="t361" to="331361889" type="taxi"/>
 <trip depart="0" from="-5012106" id="t362" to="-177401370#0" type="taxi"/>
 <trip depart="0" from="4260316" id="t363" to="-136864086" type="taxi"/>
 <trip depart="0" from="-42568977" id="t364" to="24049140#2" type="taxi"/>
 <trip depart="0" from="93672255#0" id="t365" to="-10519431" type="taxi"/>
 <trip depart="0" from="45873419#1" id="t366" to="87397777" type="taxi"/>
 <trip depart="0" from="-73848515#0" id="t367" to="-71284395" type="taxi"/>
 <trip depart="0" from="78343358#1" id="t368" to="4238094#1" type="taxi"/>
 <trip depart="0" from="284137490#1" id="t369" to="4262252" type="taxi"/>
 <trip depart="0" from="24031456#4" id="t370" to="10557851" type="taxi"/>
 <trip depart="0" from="-147628763#0" id="t371" to="-24031434#1" type="taxi"/>
 <trip depart="0" from="8365705" id="t372" to="4700352" type="taxi"/>
 <trip depart="0" from="-53748711" id="t373" to="-192596483" type="taxi"/>
 <trip depart="0" from="335559222" id="t374" to="-24398203#1" type="taxi"/>
 <trip depart="0" from="234888321#1" id="t375" to="-27092854" type="taxi"/>
 <trip depart="0" from="-117623505" id="t376" to="-71284400#5" type="taxi"/>
 <trip depart="0" from="5761267#3" id="t377" to="-347676634" type="taxi"/>
 <trip depart="0" from="32620523#0" id="t378" to="-33927936" type="taxi"/>
 <trip depart="0" from="-59737642" id="t379" to="-26367998#0" type="taxi"/>
 <trip depart="0" from="39267985" id="t380" to="4643592" type="taxi"/>
 <trip depart="0" from="211043505" id="t381" to="-191374712#0" type="taxi"/>
 <trip depart="0" from="-5051646#1" id="t382" to="26428052" type="taxi"/>
 <trip depart="0" from="80652342" id="t383" to="579613562" type="taxi"/>
 <trip depart="0" from="-53803609#2" id="t384" to="-428094273" type="taxi"/>
 <trip depart="0" from="30262734#0" id="t385" to="35607774" type="taxi"/>
 <trip depart="0" from="4238027" id="t386" to="-96397912" type="taxi"/>
 <trip depart="0" from="44634932#0" id="t387" to="-148174325#0" type="taxi"/>
 <trip depart="0" from="-122529102#1" id="t388" to="34036603" type="taxi"/>
 <trip depart="0" from="25920214#1" id="t389" to="30797421" type="taxi"/>
 <trip depart="0" from="287449681" id="t390" to="4439880#1" type="taxi"/>
 <trip depart="0" from="-126389506#0" id="t391" to="30605348#1" type="taxi"/>
 <trip depart="0" from="-364031092" id="t392" to="79258885" type="taxi"/>
 <trip depart="0" from="137001952#0" id="t393" to="364419353#1" type="taxi"/>