<?xml version="1.0" encoding="utf-8"?>
<routes>
 <vType color="green" id="taxi" personCapacity="2" vClass="taxi">
  <param key="has.taxi.device" value="true"/>
  <param key="device.taxi.pickUpDuration" value="0"/>
  <param key="device.taxi.dropOffDuration" value="10"/>
  <param key="device.taxi.parking" value="true"/>
 </vType>
 <trip depart="0" from="76236377" id="t603" to="30690516#0" type="taxi"/>
 <trip depart="0" from="-237192909" id="t602" to="27737310#1" type="taxi"/>
 <trip depart="0" from="4343655" id="t601" to="60911979" type="taxi"/>
 <trip depart="0" from="-854330910" id="t600" to="-45873419#0" type="taxi"/>
 <trip depart="0" from="808307302" id="t599" to="130739175#0" type="taxi"/>
 <trip depart="0" from="-6935800#1" id="t598" to="-62513944#0" type="taxi"/>
 <trip depart="0" from="236539401" id="t597" to="138315454" type="taxi"/>
 <trip depart="0" from="97836595" id="t596" to="4220238" type="taxi"/>
 <trip depart="0" from="353000468#5" id="t595" to="138988238" type="taxi"/>
 <trip depart="0" from="155832398#3" id="t594" to="-343475028#3" type="taxi"/>
 <trip depart="0" from="7918313#2" id="t593" to="-76987970" type="taxi"/>
 <trip depart="0" from="532592462#0" id="t592" to="-95195859#0" type="taxi"/>
 <trip depart="0" from="-4439880#2" id="t591" to="-126852899" type="taxi"/>
 <trip depart="0" from="-30682488#0" id="t590" to="-30016028#2" type="taxi"/>
 <trip depart="0" from="116400269#1" id="t589" to="1060577925#4" type="taxi"/>
 <trip depart="0" from="388757908" id="t588" to="-46828406" type="taxi"/>
 <trip depart="0" from="30257050" id="t587" to="-80505800" type="taxi"/>
 <trip depart="0" from="10560541#2" id="t586" to="-22963714" type="taxi"/>
 <trip depart="0" from="-5067346#1" id="t585" to="6933803" type="taxi"/>
 <trip depart="0" from="-207112860#0" id="t584" to="-137353170" type="taxi"/>
 <trip depart="0" from="30258152" id="t583" to="-333137873#0" type="taxi"/>
 <trip depart="0" from="37308941" id="t582" to="-38281640#0" type="taxi"/>
 <trip depart="0" from="-117643624" id="t581" to="-79690665#0" type="taxi"/>
 <trip depart="0" from="285462418#0" id="t580" to="-7978942#1" type="taxi"/>
 <trip depart="0" from="-4700936" id="t579" to="839402625" type="taxi"/>
 <trip depart="0" from="6935800#1" id="t578" to="-125351192#1" type="taxi"/>
 <trip depart="0" from="83163137" id="t577" to="26348751#0" type="taxi"/>
 <trip depart="0" from="26244626#1" id="t576" to="4565191#2" type="taxi"/>
 <trip depart="0" from="-211043505" id="t575" to="61982177#1" type="taxi"/>
 <trip depart="0" from="30692837" id="t574" to="-82257905" type="taxi"/>
 <trip depart="0" from="-352312852" id="t573" to="-95195865#2" type="taxi"/>
 <trip depart="0" from="-177401369" id="t572" to="4526883#2" type="taxi"/>
 <trip depart="0" from="-9637962#2" id="t571" to="4261956" type="taxi"/>
 <trip depart="0" from="-5012175" id="t570" to="27246119" type="taxi"/>
 <trip depart="0" from="56253839" id="t569" to="-208585109#0" type="taxi"/>
 <trip depart="0" from="-4952783#0" id="t568" to="-260900664#0" type="taxi"/>
 <trip depart="0" from="53682403#2" id="t567" to="122529094#1" type="taxi"/>
 <trip depart="0" from="125589421#0" id="t566" to="-235031516#0" type="taxi"/>
 <trip depart="0" from="145737637#1" id="t565" to="195552019#1" type="taxi"/>
 <trip depart="0" from="5011750" id="t564" to="160632153#2" type="taxi"/>
 <trip depart="0" from="-203300097" id="t563" to="-218601759#0" type="taxi"/>
 <trip depart="0" from="-209845131" id="t562" to="29429263#0" type="taxi"/>
 <trip depart="0" from="-60953483" id="t561" to="-46596597#1" type="taxi"/>
 <trip depart="0" from="137001952#0" id="t560" to="132855673" type="taxi"/>
 <trip depart="0" from="-125351192#1" id="t559" to="76779736" type="taxi"/>
 <trip depart="0" from="-222389345" id="t558" to="5230785" type="taxi"/>
 <trip depart="0" from="4871836" id="t557" to="24423403#11" type="taxi"/>
 <trip depart="0" from="308586584#1" id="t556" to="-4263848" type="taxi"/>
 <trip depart="0" from="82524565" id="t555" to="129827611#1" type="taxi"/>
 <trip depart="0" from="4685928" id="t554" to="38807023" type="taxi"/>
 <trip depart="0" from="30690511" id="t553" to="-46606162" type="taxi"/>
 <trip depart="0" from="71321189#1" id="t552" to="4220453" type="taxi"/>
 <trip depart="0" from="5095168" id="t551" to="157708871" type="taxi"/>
 <trip depart="0" from="-122529096#8" id="t550" to="-4233517#0" type="taxi"/>
 <trip depart="0" from="-61270705" id="t549" to="117654826" type="taxi"/>
 <trip depart="0" from="4468804#3" id="t548" to="-26165752#0" type="taxi"/>
 <trip depart="0" from="285456482#5" id="t547" to="24855446#3" type="taxi"/>
 <trip depart="0" from="25894166#1" id="t546" to="4644943" type="taxi"/>
 <trip depart="0" from="-42189700" id="t545" to="211208696#1" type="taxi"/>
 <trip depart="0" from="30288411#0" id="t544" to="-71267148" type="taxi"/>
 <trip depart="0" from="51340801" id="t543" to="-122417754" type="taxi"/>
 <trip depart="0" from="4226192#1" id="t542" to="575671316" type="taxi"/>
 <trip depart="0" from="10560646#1" id="t541" to="73013402" type="taxi"/>
 <trip depart="0" from="211208696#1" id="t540" to="-150645961" type="taxi"/>
 <trip depart="0" from="4254321" id="t539" to="-24405231#0" type="taxi"/>
 <trip depart="0" from="-4682936#0" id="t538" to="-130125425" type="taxi"/>
 <trip depart="0" from="133109576" id="t537" to="5036527" type="taxi"/>
 <trip depart="0" from="703967772" id="t536" to="9702949" type="taxi"/>
 <trip depart="0" from="4952724" id="t535" to="-116624222" type="taxi"/>
 <trip depart="0" from="63540900#1" id="t534" to="-355057654" type="taxi"/>
 <trip depart="0" from="-116920214" id="t533" to="-4952787" type="taxi"/>
 <trip depart="0" from="35834877" id="t532" to="4650206" type="taxi"/>
 <trip depart="0" from="133114633" id="t531" to="-807837521#2" type="taxi"/>
 <trip depart="0" from="-136864084#0" id="t530" to="83163132" type="taxi"/>
 <trip depart="0" from="-349896687#1" id="t529" to="71332912" type="taxi"/>
 <trip depart="0" from="190980636#0" id="t528" to="4220453" type="taxi"/>
 <trip depart="0" from="-10426053#1" id="t527" to="30262880#0" type="taxi"/>
 <trip depart="0" from="-140495437" id="t526" to="34962437" type="taxi"/>
 <trip depart="0" from="4526892" id="t525" to="-122529099" type="taxi"/>
 <trip depart="0" from="-60952082#1" id="t524" to="122529098#0" type="taxi"/>
 <trip depart="0" from="4261819" id="t523" to="-283406839" type="taxi"/>
 <trip depart="0" from="-305527295" id="t522" to="211332272#0" type="taxi"/>
 <trip depart="0" from="145737637#0" id="t521" to="104178639#0" type="taxi"/>
 <trip depart="0" from="-57078728" id="t520" to="25523330" type="taxi"/>
 <trip depart="0" from="-191253807" id="t519" to="20359648#6" type="taxi"/>
 <trip depart="0" from="-4468815#1" id="t518" to="221795727" type="taxi"/>
 <trip depart="0" from="78393336#1" id="t517" to="-125351170#1" type="taxi"/>
 <trip depart="0" from="-212687129#0" id="t516" to="-94124135" type="taxi"/>
 <trip depart="0" from="233564757#1" id="t515" to="285328347" type="taxi"/>
 <trip depart="0" from="-138517980" id="t514" to="-61279843" type="taxi"/>
 <trip depart="0" from="8102482" id="t513" to="79884614" type="taxi"/>
 <trip depart="0" from="7918124#3" id="t512" to="5095206" type="taxi"/>
 <trip depart="0" from="-28918381#1" id="t511" to="-321098637" type="taxi"/>
 <trip depart="0" from="61566224" id="t510" to="-192591535#0" type="taxi"/>
 <trip depart="0" from="14454013" id="t509" to="5095190#1" type="taxi"/>
 <trip depart="0" from="46044614" id="t508" to="25561765" type="taxi"/>
 <trip depart="0" from="-125351142#0" id="t507" to="-121411754" type="taxi"/>
 <trip depart="0" from="-310738357" id="t506" to="-930769322" type="taxi"/>
 <trip depart="0" from="212687129#3" id="t505" to="-5042409" type="taxi"/>
 <trip depart="0" from="-28554415" id="t504" to="-101520672" type="taxi"/>
 <trip depart="0" from="308586583#1" id="t503" to="-115915280#1" type="taxi"/>
 <trip depart="0" from="-169313833#1" id="t502" to="-28656717" type="taxi"/>
 <trip depart="0" from="4646502#1" id="t501" to="-140499063" type="taxi"/>
 <trip depart="0" from="-4233644#2" id="t500" to="568356671" type="taxi"/>
 <trip depart="0" from="333144376" id="t499" to="-74048887" type="taxi"/>
 <trip depart="0" from="-4689380" id="t498" to="-333326808#0" type="taxi"/>
 <trip depart="0" from="142497098" id="t497" to="230874056" type="taxi"/>
 <trip depart="0" from="-125351142#0" id="t496" to="-18312020" type="taxi"/>
 <trip depart="0" from="62065942#1" id="t495" to="-231402126#0" type="taxi"/>
 <trip depart="0" from="-295416118#1" id="t494" to="183247519#0" type="taxi"/>
 <trip depart="0" from="-1052613455" id="t493" to="-117541465#0" type="taxi"/>
 <trip depart="0" from="-122529094#7" id="t492" to="-93485182#1" type="taxi"/>
 <trip depart="0" from="4690376" id="t491" to="4232328" type="taxi"/>
 <trip depart="0" from="-4783109#1" id="t490" to="-262038604" type="taxi"/>
 <trip depart="0" from="10561982" id="t489" to="-84018015" type="taxi"/>
 <trip depart="0" from="4227182#0" id="t488" to="30471056" type="taxi"/>
 <trip depart="0" from="-5042402" id="t487" to="-372445340#0" type="taxi"/>
 <trip depart="0" from="125351177#3" id="t486" to="-239784927" type="taxi"/>
 <trip depart="0" from="-117355642" id="t485" to="4872354" type="taxi"/>
 <trip depart="0" from="212687129#2" id="t484" to="26378767#0" type="taxi"/>
 <trip depart="0" from="53522499#2" id="t483" to="147700934" type="taxi"/>
 <trip depart="0" from="-5234464" id="t482" to="97097111#1" type="taxi"/>
 <trip depart="0" from="-14571550#0" id="t481" to="106089939#0" type="taxi"/>
 <trip depart="0" from="-129829169" id="t480" to="35061794" type="taxi"/>
 <trip depart="0" from="-125351169" id="t479" to="364419352#0" type="taxi"/>
 <trip depart="0" from="77889443#3" id="t478" to="130686055" type="taxi"/>
 <trip depart="0" from="4353778#0" id="t477" to="194445378" type="taxi"/>
 <trip depart="0" from="-125351139#1" id="t476" to="25538510" type="taxi"/>
 <trip depart="0" from="-117093566#0" id="t475" to="4492785#0" type="taxi"/>
 <trip depart="0" from="-14434303" id="t474" to="5234587" type="taxi"/>
 <trip depart="0" from="-709347809" id="t473" to="23163850" type="taxi"/>
 <trip depart="0" from="-203752765" id="t472" to="-765843955" type="taxi"/>
 <trip depart="0" from="-118864079#4" id="t471" to="5067769" type="taxi"/>
 <trip depart="0" from="-119051529#2" id="t470" to="-24552706" type="taxi"/>
 <trip depart="0" from="27251389#1" id="t469" to="156117446#1" type="taxi"/>
 <trip depart="0" from="-122529100" id="t468" to="125809116" type="taxi"/>
 <trip depart="0" from="-95384658" id="t467" to="-105261685" type="taxi"/>
 <trip depart="0" from="44149187" id="t466" to="415081056#0" type="taxi"/>
 <trip depart="0" from="-125482061" id="t465" to="-205258663#1" type="taxi"/>
 <trip depart="0" from="-10426171#1" id="t464" to="82524565" type="taxi"/>
 <trip depart="0" from="266160353" id="t463" to="40392946#1" type="taxi"/>
 <trip depart="0" from="-428094273" id="t462" to="7994512#1" type="taxi"/>
 <trip depart="0" from="23253675" id="t461" to="52882542" type="taxi"/>
 <trip depart="0" from="178179087" id="t460" to="-125351142#6" type="taxi"/>
 <trip depart="0" from="233171094#3" id="t459" to="-4343799" type="taxi"/>
 <trip depart="0" from="-4468814" id="t458" to="285137507" type="taxi"/>
 <trip depart="0" from="-79690665#0" id="t457" to="222389341" type="taxi"/>
 <trip depart="0" from="-61491729" id="t456" to="-363811745" type="taxi"/>
 <trip depart="0" from="-9637962#1" id="t455" to="-61970062" type="taxi"/>
 <trip depart="0" from="-37972272" id="t454" to="-83826857" type="taxi"/>
 <trip depart="0" from="256565259#0" id="t453" to="642129592#0" type="taxi"/>
 <trip depart="0" from="5234274" id="t452" to="133104417#1" type="taxi"/>
 <trip depart="0" from="95916459" id="t451" to="113586430#0" type="taxi"/>
 <trip depart="0" from="38435331" id="t450" to="191253804" type="taxi"/>
 <trip depart="0" from="-25615043#2" id="t449" to="-71233702" type="taxi"/>
 <trip depart="0" from="121411753#0" id="t448" to="-122417754" type="taxi"/>
 <trip depart="0" from="-50300218#0" id="t447" to="328167761" type="taxi"/>
 <trip depart="0" from="-192056823" id="t446" to="26428533#1" type="taxi"/>
 <trip depart="0" from="55260909#0" id="t445" to="-61367409" type="taxi"/>
 <trip depart="0" from="5065929" id="t444" to="83888320" type="taxi"/>
 <trip depart="0" from="-9637962#0" id="t443" to="633051823" type="taxi"/>
 <trip depart="0" from="61458829#0" id="t442" to="-355057654" type="taxi"/>
 <trip depart="0" from="132816266" id="t441" to="169310136#0" type="taxi"/>
 <trip depart="0" from="34261692#0" id="t440" to="204247887" type="taxi"/>
 <trip depart="0" from="77889443#3" id="t439" to="-147133993" type="taxi"/>
 <trip depart="0" from="-34588356" id="t438" to="-108501685#0" type="taxi"/>
 <trip depart="0" from="32278075" id="t437" to="30258589" type="taxi"/>
 <trip depart="0" from="35354597#1" id="t436" to="-75516495" type="taxi"/>
 <trip depart="0" from="10558792" id="t435" to="-238877496#0" type="taxi"/>
 <trip depart="0" from="-158882487#2" id="t434" to="285137501" type="taxi"/>
 <trip depart="0" from="-968883803" id="t433" to="-5011750" type="taxi"/>
 <trip depart="0" from="302380992" id="t432" to="79499715" type="taxi"/>
 <trip depart="0" from="-25894166#0" id="t431" to="1006265805#0" type="taxi"/>
 <trip depart="0" from="190007552#0" id="t430" to="-353195907" type="taxi"/>
 <trip depart="0" from="-237192909" id="t429" to="-5235974#0" type="taxi"/>
 <trip depart="0" from="-53356558" id="t428" to="-359509040#0" type="taxi"/>
 <trip depart="0" from="24284901#0" id="t427" to="-210993752#2" type="taxi"/>
 <trip depart="0" from="41882139" id="t426" to="157703258" type="taxi"/>
 <trip depart="0" from="117590609" id="t425" to="-4238028#1" type="taxi"/>
 <trip depart="0" from="-96809683#0" id="t424" to="-262038605" type="taxi"/>
 <trip depart="0" from="155832398#2" id="t423" to="-75516495" type="taxi"/>
 <trip depart="0" from="-441121156" id="t422" to="333329866#1" type="taxi"/>
 <trip depart="0" from="5067356#0" id="t421" to="-162352616" type="taxi"/>
 <trip depart="0" from="61367454#1" id="t420" to="125143963" type="taxi"/>
 <trip depart="0" from="58422327" id="t419" to="124538317" type="taxi"/>
 <trip depart="0" from="-61645644" id="t418" to="207112860#1" type="taxi"/>
 <trip depart="0" from="30471194" id="t417" to="74310198" type="taxi"/>
 <trip depart="0" from="-53803609#2" id="t416" to="10561982" type="taxi"/>
 <trip depart="0" from="132932903" id="t415" to="-122997935" type="taxi"/>
 <trip depart="0" from="25153041" id="t414" to="46165355" type="taxi"/>
 <trip depart="0" from="93485182#1" id="t413" to="-100018570#0" type="taxi"/>
 <trip depart="0" from="125351156#0" id="t412" to="-6167341" type="taxi"/>
 <trip depart="0" from="136867909" id="t411" to="30682488#1" type="taxi"/>
 <trip depart="0" from="33807808" id="t410" to="332253063#0" type="taxi"/>
 <trip depart="0" from="-4229408#1" id="t409" to="-212706393" type="taxi"/>
 <trip depart="0" from="-127605220#1" id="t408" to="-27251389#1" type="taxi"/>
 <trip depart="0" from="-330898878" id="t407" to="-20045870" type="taxi"/>
 <trip depart="0" from="20445293" id="t406" to="125351188#1" type="taxi"/>
 <trip depart="0" from="-4650128" id="t405" to="117093565" type="taxi"/>
 <trip depart="0" from="1006110995#1" id="t404" to="113586396#0" type="taxi"/>
 <trip depart="0" from="-60954295" id="t403" to="33826299" type="taxi"/>
 <trip depart="0" from="-183828644" id="t402" to="-140822427" type="taxi"/>
 <trip depart="0" from="-353073228" id="t401" to="-220370231#1" type="taxi"/>
 <trip depart="0" from="140499033" id="t400" to="-77608974#0" type="taxi"/>
 <trip depart="0" from="30263322#0" id="t399" to="58768887#1" type="taxi"/>
 <trip depart="0" from="125351183" id="t398" to="32461045#4" type="taxi"/>
 <trip depart="0" from="-24423403#8" id="t397" to="993027492" type="taxi"/>
 <trip depart="0" from="-210994591" id="t396" to="-519395085" type="taxi"/>
 <trip depart="0" from="396449088#1" id="t395" to="94087971" type="taxi"/>
 <trip depart="0" from="-6927774" id="t394" to="5205353#1" type="taxi"/>
 <trip depart="0" from="117590604" id="t393" to="203117345" type="taxi"/>
 <trip depart="0" from="-79258885" id="t392" to="-4690920" type="taxi"/>
 <trip depart="0" from="-5096970" id="t391" to="35155932#1" type="taxi"/>
 <trip depart="0" from="-5137917" id="t390" to="-4644945#1" type="taxi"/>
 <trip depart="0" from="4688231#0" id="t389" to="108151818#1" type="taxi"/>
 <trip depart="0" from="236083705" id="t388" to="126382097" type="taxi"/>
 <trip depart="0" from="33400974#1" id="t387" to="4229447#1" type="taxi"/>
 <trip depart="0" from="-174728014" id="t386" to="-84333174#1" type="taxi"/>
 <trip depart="0" from="8033755" id="t385" to="237496664#1" type="taxi"/>
 <trip depart="0" from="5086173" id="t384" to="46596600" type="taxi"/>
 <trip depart="0" from="351188855#1" id="t383" to="5234274" type="taxi"/>
 <trip depart="0" from="95916459" id="t382" to="-79240121" type="taxi"/>
 <trip depart="0" from="-6933254" id="t381" to="-45873419#0" type="taxi"/>
 <trip depart="0" from="8064520" id="t380" to="78394402" type="taxi"/>
 <trip depart="0" from="-126499103#0" id="t379" to="-42792917#0" type="taxi"/>
 <trip depart="0" from="642930999" id="t378" to="-83163108" type="taxi"/>
 <trip depart="0" from="10560992#1" id="t377" to="4274437" type="taxi"/>
 <trip depart="0" from="-74311311" id="t376" to="51340803#0" type="taxi"/>
 <trip depart="0" from="-195534795" id="t375" to="155832398#3" type="taxi"/>
 <trip depart="0" from="-61412729" id="t374" to="-313535510" type="taxi"/>
 <trip depart="0" from="-308586584#0" id="t373" to="37523549#0" type="taxi"/>
 <trip depart="0" from="72448898" id="t372" to="-32619220#1" type="taxi"/>
 <trip depart="0" from="232003006#1" id="t371" to="208696272#1" type="taxi"/>
 <trip depart="0" from="142035169#0" id="t370" to="42928295" type="taxi"/>
 <trip depart="0" from="-32619220#1" id="t369" to="301434311#1" type="taxi"/>
 <trip depart="0" from="-4343684" id="t368" to="-4343651#0" type="taxi"/>
 <trip depart="0" from="8058592" id="t367" to="-4341567" type="taxi"/>
 <trip depart="0" from="1071445044#0" id="t366" to="-117589024" type="taxi"/>
 <trip depart="0" from="-47520605" id="t365" to="116400269#1" type="taxi"/>
 <trip depart="0" from="6107379#0" id="t364" to="617369739#1" type="taxi"/>
 <trip depart="0" from="296377143" id="t363" to="4691969#0" type="taxi"/>
 <trip depart="0" from="23253675" id="t362" to="-238171621" type="taxi"/>
 <trip depart="0" from="-260900664#1" id="t361" to="-59683236#1" type="taxi"/>
 <trip depart="0" from="-43532267" id="t360" to="-63322102#0" type="taxi"/>
 <trip depart="0" from="137001954#0" id="t359" to="35155912" type="taxi"/>
 <trip depart="0" from="-62160923" id="t358" to="-60753020#2" type="taxi"/>
 <trip depart="0" from="52582072#7" id="t357" to="8365705" type="taxi"/>
 <trip depart="0" from="-125351155" id="t356" to="10426021#1" type="taxi"/>
 <trip depart="0" from="-125351192#5" id="t355" to="-10561507" type="taxi"/>
 <trip depart="0" from="-305527295" id="t354" to="30618814#0" type="taxi"/>
 <trip depart="0" from="191374712#1" id="t353" to="13632229" type="taxi"/>
 <trip depart="0" from="30001660#0" id="t352" to="14571550#1" type="taxi"/>
 <trip depart="0" from="-62511567" id="t351" to="-301875350" type="taxi"/>
 <trip depart="0" from="39019694" id="t350" to="-62064347" type="taxi"/>
 <trip depart="0" from="-5036533" id="t349" to="4216414#1" type="taxi"/>
 <trip depart="0" from="-22980738" id="t348" to="-5205353#2" type="taxi"/>
 <trip depart="0" from="-546942445" id="t347" to="-116049444#1" type="taxi"/>
 <trip depart="0" from="62065942#1" id="t346" to="24429424" type="taxi"/>
 <trip depart="0" from="703967713" id="t345" to="137834041#0" type="taxi"/>
 <trip depart="0" from="28679143#0" id="t344" to="-62161917" type="taxi"/>
 <trip depart="0" from="122590736#1" id="t343" to="-95195875" type="taxi"/>
 <trip depart="0" from="-108317856" id="t342" to="15881544#1" type="taxi"/>
 <trip depart="0" from="-581706511#0" id="t341" to="4343672" type="taxi"/>
 <trip depart="0" from="33400974#2" id="t340" to="301875350" type="taxi"/>
 <trip depart="0" from="-4261797" id="t339" to="-207112860#0" type="taxi"/>
 <trip depart="0" from="8141209" id="t338" to="219022022" type="taxi"/>
 <trip depart="0" from="-125371794#1" id="t337" to="5047287" type="taxi"/>
 <trip depart="0" from="-4686006#1" id="t336" to="62513944#1" type="taxi"/>
 <trip depart="0" from="5761267#4" id="t335" to="30682489" type="taxi"/>
 <trip depart="0" from="-5042319" id="t334" to="-93485184" type="taxi"/>
 <trip depart="0" from="-358441043#0" id="t333" to="-359509035" type="taxi"/>
 <trip depart="0" from="30690522#0" id="t332" to="-117625588" type="taxi"/>
 <trip depart="0" from="22999027#3" id="t331" to="233171092" type="taxi"/>
 <trip depart="0" from="-61994328" id="t330" to="-367815853#0" type="taxi"/>
 <trip depart="0" from="-233171093" id="t329" to="20359648#6" type="taxi"/>
 <trip depart="0" from="30682490" id="t328" to="4691968#3" type="taxi"/>
 <trip depart="0" from="10561558" id="t327" to="223401059#0" type="taxi"/>
 <trip depart="0" from="-297159795#1" id="t326" to="-74338615" type="taxi"/>
 <trip depart="0" from="6926949#1" id="t325" to="481549212" type="taxi"/>
 <trip depart="0" from="-304428443" id="t324" to="-332253063#1" type="taxi"/>
 <trip depart="0" from="136864084#3" id="t323" to="24466644#0" type="taxi"/>
 <trip depart="0" from="-333156359#4" id="t322" to="461905015" type="taxi"/>
 <trip depart="0" from="37280269#0" id="t321" to="24423403#7" type="taxi"/>
 <trip depart="0" from="-245633711" id="t320" to="30471057#0" type="taxi"/>
 <trip depart="0" from="-5047242#2" id="t319" to="-169313833#2" type="taxi"/>
 <trip depart="0" from="18374025" id="t318" to="30471050" type="taxi"/>
 <trip depart="0" from="-125351209#1" id="t317" to="33826299" type="taxi"/>
 <trip depart="0" from="-4238094#2" id="t316" to="16868678#1" type="taxi"/>
 <trip depart="0" from="-10426053#2" id="t315" to="353000468#6" type="taxi"/>
 <trip depart="0" from="84656435#1" id="t314" to="396418389" type="taxi"/>
 <trip depart="0" from="74327234" id="t313" to="-7715353#0" type="taxi"/>
 <trip depart="0" from="-27959029#0" id="t312" to="96814109#0" type="taxi"/>
 <trip depart="0" from="-232003006#0" id="t311" to="-61994328" type="taxi"/>
 <trip depart="0" from="305319118" id="t310" to="-367315282" type="taxi"/>
 <trip depart="0" from="94107486" id="t309" to="131472582" type="taxi"/>
 <trip depart="0" from="149576263" id="t308" to="30620495" type="taxi"/>
 <trip depart="0" from="140499031#1" id="t307" to="113586390#1" type="taxi"/>
 <trip depart="0" from="5761267#6" id="t306" to="125351134#0" type="taxi"/>
 <trip depart="0" from="-208548185" id="t305" to="25561765" type="taxi"/>
 <trip depart="0" from="73181417" id="t304" to="-78393349" type="taxi"/>
 <trip depart="0" from="-212683012#0" id="t303" to="-76987970" type="taxi"/>
 <trip depart="0" from="24426767#0" id="t302" to="-192591526" type="taxi"/>
 <trip depart="0" from="217848913" id="t301" to="-448337412" type="taxi"/>
 <trip depart="0" from="-73013398" id="t300" to="5068948" type="taxi"/>
 <trip depart="0" from="-18381450#2" id="t299" to="864666000" type="taxi"/>
 <trip depart="0" from="132795017#0" id="t298" to="-80505817#0" type="taxi"/>
 <trip depart="0" from="199288488" id="t297" to="-333329866#0" type="taxi"/>
 <trip depart="0" from="-330898875" id="t296" to="332166062" type="taxi"/>
 <trip depart="0" from="-23960853#0" id="t295" to="5091229" type="taxi"/>
 <trip depart="0" from="426790110#1" id="t294" to="-51102576" type="taxi"/>
 <trip depart="0" from="-261374489#3" id="t293" to="-98529307" type="taxi"/>
 <trip depart="0" from="30682488#0" id="t292" to="-151875502" type="taxi"/>
 <trip depart="0" from="138666583" id="t291" to="-789148985" type="taxi"/>
 <trip depart="0" from="-117623507" id="t290" to="35062276" type="taxi"/>
 <trip depart="0" from="25538510" id="t289" to="-10425852" type="taxi"/>
 <trip depart="0" from="-113586408#1" id="t288" to="57722545" type="taxi"/>
 <trip depart="0" from="26037066" id="t287" to="140499033" type="taxi"/>
 <trip depart="0" from="343475028#0" id="t286" to="-119051529#0" type="taxi"/>
 <trip depart="0" from="-353000468#3" id="t285" to="579613562" type="taxi"/>
 <trip depart="0" from="237386917#0" id="t284" to="-359652547#3" type="taxi"/>
 <trip depart="0" from="125590998" id="t283" to="331546057#1" type="taxi"/>
 <trip depart="0" from="125351114" id="t282" to="145020530" type="taxi"/>
 <trip depart="0" from="-30536519" id="t281" to="-134239748#0" type="taxi"/>
 <trip depart="0" from="-113586396#5" id="t280" to="-992260434#0" type="taxi"/>
 <trip depart="0" from="10516236" id="t279" to="5047275#1" type="taxi"/>
 <trip depart="0" from="27520209#0" id="t278" to="125589739#2" type="taxi"/>
 <trip depart="0" from="-886306666" id="t277" to="138065847" type="taxi"/>
 <trip depart="0" from="-235013693#5" id="t276" to="-138067566#0" type="taxi"/>
 <trip depart="0" from="-266161715#3" id="t275" to="-352679816" type="taxi"/>
 <trip depart="0" from="-26698200" id="t274" to="-118523882" type="taxi"/>
 <trip depart="0" from="1020560683" id="t273" to="-138065839" type="taxi"/>
 <trip depart="0" from="-211042303#2" id="t272" to="-60063874#1" type="taxi"/>
 <trip depart="0" from="222510307" id="t271" to="8135756" type="taxi"/>
 <trip depart="0" from="5065975" id="t270" to="147561108" type="taxi"/>
 <trip depart="0" from="-42711360" id="t269" to="-333144415" type="taxi"/>
 <trip depart="0" from="29688693" id="t268" to="-286243200" type="taxi"/>
 <trip depart="0" from="-81759225#0" id="t267" to="-122529096#7" type="taxi"/>
 <trip depart="0" from="73856172#3" id="t266" to="117099159#2" type="taxi"/>
 <trip depart="0" from="-108262963#0" id="t265" to="130686055" type="taxi"/>
 <trip depart="0" from="-126344297#0" id="t264" to="14571549" type="taxi"/>
 <trip depart="0" from="122463339" id="t263" to="-107356084" type="taxi"/>
 <trip depart="0" from="113586408#0" id="t262" to="85734075#1" type="taxi"/>
 <trip depart="0" from="-35962800#0" id="t261" to="-132071980" type="taxi"/>
 <trip depart="0" from="-5047211#2" id="t260" to="116049443#2" type="taxi"/>
 <trip depart="0" from="4691940" id="t259" to="-5012105" type="taxi"/>
 <trip depart="0" from="-61970062" id="t258" to="-35028510" type="taxi"/>
 <trip depart="0" from="26626099" id="t257" to="-193684941" type="taxi"/>
 <trip depart="0" from="71321189#1" id="t256" to="-139916980" type="taxi"/>
 <trip depart="0" from="-126301859" id="t255" to="642129592#0" type="taxi"/>
 <trip depart="0" from="343906942" id="t254" to="80228292" type="taxi"/>
 <trip depart="0" from="-42676340#2" id="t253" to="-265232859#0" type="taxi"/>
 <trip depart="0" from="107681116#1" id="t252" to="-24478987" type="taxi"/>
 <trip depart="0" from="-23739394" id="t251" to="899868125" type="taxi"/>
 <trip depart="0" from="-6520550" id="t250" to="-84751775" type="taxi"/>
 <trip depart="0" from="-28548302" id="t249" to="34728597" type="taxi"/>
 <trip depart="0" from="212697513" id="t248" to="-23253675" type="taxi"/>
 <trip depart="0" from="-6167341" id="t247" to="183401315#1" type="taxi"/>
 <trip depart="0" from="35359521" id="t246" to="40395154" type="taxi"/>
 <trip depart="0" from="-333329864" id="t245" to="4370490" type="taxi"/>
 <trip depart="0" from="220769918" id="t244" to="117656063#1" type="taxi"/>
 <trip depart="0" from="-333137901#0" id="t243" to="-4263979#0" type="taxi"/>
 <trip depart="0" from="-39301851#2" id="t242" to="-5085855" type="taxi"/>
 <trip depart="0" from="337470015#2" id="t241" to="-362830233#1" type="taxi"/>
 <trip depart="0" from="188001762" id="t240" to="117654826" type="taxi"/>
 <trip depart="0" from="35359521" id="t239" to="-79821517" type="taxi"/>
 <trip depart="0" from="117649850#1" id="t238" to="-4260589" type="taxi"/>
 <trip depart="0" from="20046066#1" id="t237" to="-4343651#1" type="taxi"/>
 <trip depart="0" from="-5012147" id="t236" to="-367815853#2" type="taxi"/>
 <trip depart="0" from="-337470020" id="t235" to="118155456#2" type="taxi"/>
 <trip depart="0" from="117590608" id="t234" to="24429368-AddedOffRampEdge" type="taxi"/>
 <trip depart="0" from="864640791" id="t233" to="9639402#1" type="taxi"/>
 <trip depart="0" from="-108262993#0" id="t232" to="-26244626#1" type="taxi"/>
 <trip depart="0" from="212688462#0" id="t231" to="28554656#1" type="taxi"/>
 <trip depart="0" from="310380982" id="t230" to="232123269" type="taxi"/>
 <trip depart="0" from="118864084" id="t229" to="232123266" type="taxi"/>
 <trip depart="0" from="345608032#1" id="t228" to="4685781#0" type="taxi"/>
 <trip depart="0" from="14573382#2" id="t227" to="29508371#0" type="taxi"/>
 <trip depart="0" from="-119051524" id="t226" to="51856551#0" type="taxi"/>
 <trip depart="0" from="-4226192#0" id="t225" to="-24478987" type="taxi"/>
 <trip depart="0" from="338862108#0" id="t224" to="-95195865#1" type="taxi"/>
 <trip depart="0" from="-241896834" id="t223" to="-16109715" type="taxi"/>
 <trip depart="0" from="4341555" id="t222" to="-75511979#0" type="taxi"/>
 <trip depart="0" from="75615219#1" id="t221" to="-4263850" type="taxi"/>
 <trip depart="0" from="84023980" id="t220" to="633051832" type="taxi"/>
 <trip depart="0" from="34760663" id="t219" to="-362830233#1" type="taxi"/>
 <trip depart="0" from="-24031434#1" id="t218" to="5051646#1" type="taxi"/>
 <trip depart="0" from="74322550#1" id="t217" to="74310200" type="taxi"/>
 <trip depart="0" from="4238093#1" id="t216" to="5047215" type="taxi"/>
 <trip depart="0" from="-341878808#3" id="t215" to="24424238#0" type="taxi"/>
 <trip depart="0" from="-1068887496" id="t214" to="-376239063" type="taxi"/>
 <trip depart="0" from="4262168#1" id="t213" to="-136091638#1" type="taxi"/>
 <trip depart="0" from="5234702" id="t212" to="-96560046" type="taxi"/>
 <trip depart="0" from="324478542" id="t211" to="157709644" type="taxi"/>