<?xml version="1.0" encoding="utf-8"?>
<routes>
 <trip depart="3.0" departLane="best" departSpeed="max" from="-10363555" id="rs_c000_i000_28" to="530282943"/>
 <trip depart="4.0" departLane="best" departSpeed="max" from="-26037066" id="rs_c000_i000_49" to="58423646"/>
 <trip depart="5.0" departLane="best" departSpeed="max" from="-126709272#1" id="rs_c000_i000_57" to="102332991"/>
 <trip depart="5.0" departLane="best" departSpeed="max" from="-30383562#2" id="rs_c000_i000_64" to="45409283"/>
 <trip depart="10.0" departLane="best" departSpeed="max" from="-10420635#1" id="rs_c000_i001_10" to="133114633"/>
 <trip depart="13.0" departLane="best" departSpeed="max" from="-117654815#1" id="rs_c000_i000_148" to="25980639"/>
 <trip depart="14.0" departLane="best" departSpeed="max" from="257036220#1" id="rs_c001_i000_21" to="161014734"/>
 <trip depart="16.0" departLane="best" departSpeed="max" from="4233684" id="rs_c000_i001_20" to="102332991"/>
 <trip depart="17.0" departLane="best" departSpeed="max" from="-167581246" id="rs_c001_i000_28" to="102332987#0"/>
 <trip depart="17.0" departLane="best" departSpeed="max" from="-60952082#0" id="rs_c000_i000_189" to="41882139"/>
 <trip depart="17.0" departLane="best" departSpeed="max" from="-71284395" id="rs_c000_i000_195" to="25980639"/>
 <trip depart="17.0" departLane="best" departSpeed="max" from="60949087" id="rs_c000_i000_199" to="24662114#0"/>
 <trip depart="17.0" departLane="best" departSpeed="max" from="35722785#1" id="rs_c000_i000_202" to="285137509"/>
 <trip depart="20.0" departLane="best" departSpeed="max" from="-61367432" id="rs_c000_i000_245" to="41882139"/>
 <trip depart="22.0" departLane="best" departSpeed="max" from="285137507" id="rs_c000_i000_262" to="4882716-AddedOffRampEdge"/>
 <trip depart="24.0" departLane="best" departSpeed="max" from="219528064" id="rs_c001_i001_7" to="245633712#0"/>
 <trip depart="25.0" departLane="best" departSpeed="max" from="-211040112#2" id="rs_c000_i002_4" to="133114633"/>
 <trip depart="25.0" departLane="best" departSpeed="max" from="-367319945#0" id="rs_c000_i000_295" to="530282943"/>
 <trip depart="25.0" departLane="best" departSpeed="max" from="56253839" id="rs_c000_i000_303" to="25980639"/>
 <trip depart="26.0" departLane="best" departSpeed="max" from="-116645514#0" id="rs_c000_i000_305" to="30682490"/>
 <trip depart="28.0" departLane="best" departSpeed="max" from="125351134#1" id="rs_c000_i000_329" to="24429370"/>
 <trip depart="29.0" departLane="best" departSpeed="max" from="4246321" id="rs_c001_i000_49" to="530282943"/>
 <trip depart="30.0" departLane="best" departSpeed="max" from="-4685994#1" id="rs_c000_i000_349" to="133109581#0"/>
 <trip depart="31.0" departLane="best" departSpeed="max" from="34151614" id="rs_c000_i000_364" to="17245257-AddedOffRampEdge"/>
 <trip depart="32.0" departLane="best" departSpeed="max" from="-129785060" id="rs_c000_i000_376" to="25980639"/>
 <trip depart="33.0" departLane="best" departSpeed="max" from="-285133710" id="rs_c001_i000_57" to="16157339"/>
 <trip depart="33.0" departLane="best" departSpeed="max" from="-32757187" id="rs_c001_i000_61" to="51667067#0"/>
 <trip depart="33.0" departLane="best" departSpeed="max" from="-139241837" id="rs_c000_i000_378" to="24429370"/>
 <trip depart="34.0" departLane="best" departSpeed="max" from="1080298604" id="rs_c001_i000_68" to="-37933266#0"/>
 <trip depart="34.0" departLane="best" departSpeed="max" from="-546942445" id="rs_c000_i000_399" to="225662323"/>
 <trip depart="35.0" departLane="best" departSpeed="max" from="108200486" id="rs_c001_i000_71" to="161014734"/>
 <trip depart="35.0" departLane="best" departSpeed="max" from="-27121494" id="rs_c000_i000_413" to="5095206"/>
 <trip depart="36.0" departLane="best" departSpeed="max" from="60949087" id="rs_c000_i000_415" to="158033990#1"/>
 <trip depart="36.0" departLane="best" departSpeed="max" from="-39162601" id="rs_c000_i000_416" to="34760663"/>
 <trip depart="38.0" departLane="best" departSpeed="max" from="-10426053#1" id="rs_c000_i000_444" to="139124541#0"/>
 <trip depart="39.0" departLane="best" departSpeed="max" from="-75732915" id="rs_c001_i000_81" to="41882139"/>
 <trip depart="40.0" departLane="best" departSpeed="max" from="-125143988#1" id="rs_c000_i000_460" to="26187755#0"/>
 <trip depart="41.0" departLane="best" departSpeed="max" from="155832398#1" id="rs_c000_i000_198" to="44634932#0"/>
 <trip depart="42.0" departLane="best" departSpeed="max" from="-6522799" id="rs_c000_i000_482" to="133114633"/>
 <trip depart="43.0" departLane="best" departSpeed="max" from="-124536769" id="rs_c000_i000_490" to="133114633"/>
 <trip depart="45.0" departLane="best" departSpeed="max" from="-4650196" id="rs_c001_i000_98_part0" to="94552561"/>
 <trip depart="46.0" departLane="best" departSpeed="max" from="4439880#1" id="rs_c000_i000_513" to="94552561"/>
 <trip depart="47.0" departLane="best" departSpeed="max" from="-122529096#6" id="rs_c000_i000_529" to="26187755#0"/>
 <trip depart="48.0" departLane="best" departSpeed="max" from="257036220#1" id="rs_c000_i000_539_part0" to="161014734"/>
 <trip depart="48.0" departLane="best" departSpeed="max" from="122590744" id="rs_c000_i000_549" to="24662114#0"/>
 <trip depart="48.0" departLane="best" departSpeed="max" from="-125351142#6" id="rs_c000_i000_551" to="26187755#0"/>
 <trip depart="49.0" departLane="best" departSpeed="max" from="125351114" id="rs_c000_i000_555" to="26187755#0"/>
 <trip depart="50.0" departLane="best" departSpeed="max" from="10560992#0" id="rs_c000_i000_571" to="29508371#0"/>
 <trip depart="52.0" departLane="best" departSpeed="max" from="4229437" id="rs_c000_i000_605" to="207295788"/>
 <trip depart="53.0" departLane="best" departSpeed="max" from="46122296" id="rs_c000_i000_617" to="132932903"/>
 <trip depart="54.0" departLane="best" departSpeed="max" from="307014052#3" id="rs_c000_i001_72" to="51667067#0"/>
 <trip depart="56.0" departLane="best" departSpeed="max" from="-83813131" id="rs_c001_i000_119" to="158033990#1"/>
 <trip depart="56.0" departLane="best" departSpeed="max" from="188956290" id="rs_c001_i000_122" to="41882139"/>
 <trip depart="57.0" departLane="best" departSpeed="max" from="-46596869" id="rs_c000_i000_666" to="45409283"/>
 <trip depart="57.0" departLane="best" departSpeed="max" from="195552019#1" id="rs_c001_i000_123" to="51667067#0"/>
 <trip depart="58.0" departLane="best" departSpeed="max" from="-25950167" id="rs_c000_i000_684" to="4683037-AddedOffRampEdge"/>
 <trip depart="58.0" departLane="best" departSpeed="max" from="15242333" id="rs_c000_i000_691" to="225662323"/>
 <trip depart="58.0" departLane="best" departSpeed="max" from="82198455" id="rs_c000_i000_694" to="10621055"/>
 <trip depart="59.0" departLane="best" departSpeed="max" from="130735705" id="rs_c000_i001_84" to="5234175"/>
 <trip depart="59.0" departLane="best" departSpeed="max" from="886212444" id="rs_c000_i000_696" to="10621055"/>
 <trip depart="59.0" departLane="best" departSpeed="max" from="-230515581#0" id="rs_c000_i000_701" to="132932903"/>
 <trip depart="60.0" departLane="best" departSpeed="max" from="-15242127#1" id="rs_c000_i000_711" to="-23815250"/>
 <trip depart="61.0" departLane="best" departSpeed="max" from="-13615786" id="rs_c000_i000_723" to="442600425"/>
 <trip depart="63.0" departLane="best" departSpeed="max" from="61669586" id="rs_c000_i002_10" to="5234175"/>
 <trip depart="65.0" departLane="best" departSpeed="max" from="-203752765" id="rs_c001_i000_145" to="138914231#0"/>
 <trip depart="65.0" departLane="best" departSpeed="max" from="-125351150" id="rs_c000_i001_93" to="26187755#0"/>
 <trip depart="67.0" departLane="best" departSpeed="max" from="-442031137#0" id="rs_c001_i000_58" to="28903697#0"/>
 <trip depart="67.0" departLane="best" departSpeed="max" from="-83488868" id="rs_c001_i000_149" to="41882139"/>
 <trip depart="68.0" departLane="best" departSpeed="max" from="-222389345" id="rs_c000_i000_800" to="225662323"/>
 <trip depart="69.0" departLane="best" departSpeed="max" from="194345826" id="rs_c000_i001_101_part0" to="108151818#1"/>
 <trip depart="69.0" departLane="best" departSpeed="max" from="-157858313#0" id="rs_c000_i000_804" to="45409283"/>
 <trip depart="69.0" departLane="best" departSpeed="max" from="364419352#0" id="rs_c000_i000_810" to="133114633"/>
 <trip depart="70.0" departLane="best" departSpeed="max" from="-32016029#2" id="rs_c001_i000_156" to="34760663"/>
 <trip depart="72.0" departLane="best" departSpeed="max" from="-53355161" id="rs_c000_i000_841" to="225662323"/>
 <trip depart="73.0" departLane="best" departSpeed="max" from="-10516147#2" id="rs_c000_i001_105" to="-5235818"/>
 <trip depart="73.0" departLane="best" departSpeed="max" from="-10405223#0" id="rs_c001_i000_160" to="530282943"/>
 <trip depart="74.0" departLane="best" departSpeed="max" from="-95100609" id="rs_c000_i000_864" to="58423646"/>
 <trip depart="74.0" departLane="best" departSpeed="max" from="100016823#2" id="rs_c000_i000_866" to="25561760"/>
 <trip depart="75.0" departLane="best" departSpeed="max" from="-328253309#0" id="rs_c000_i001_110" to="-441119941"/>
 <trip depart="75.0" departLane="best" departSpeed="max" from="-10436546" id="rs_c001_i000_164" to="35062429#0"/>
 <trip depart="76.0" departLane="best" departSpeed="max" from="-10425858" id="rs_c000_i000_882" to="139124541#0"/>
 <trip depart="77.0" departLane="best" departSpeed="max" from="-4690376" id="rs_c000_i000_893" to="30289258"/>
 <trip depart="78.0" departLane="best" departSpeed="max" from="8102541" id="rs_c000_i001_113" to="6563442#0"/>
 <trip depart="78.0" departLane="best" departSpeed="max" from="-211120149" id="rs_c000_i001_114" to="35062429#0"/>
 <trip depart="78.0" departLane="best" departSpeed="max" from="-6520550" id="rs_c001_i000_169" to="102332987#0"/>
 <trip depart="80.0" departLane="best" departSpeed="max" from="-62419359#0" id="rs_c001_i001_22" to="34760663"/>
 <trip depart="82.0" departLane="best" departSpeed="max" from="-126906449" id="rs_c000_i001_118" to="130742908#0"/>
 <trip depart="83.0" departLane="best" departSpeed="max" from="-178132932" id="rs_c000_i001_119" to="30682490"/>
 <trip depart="83.0" departLane="best" departSpeed="max" from="211119157#1" id="rs_c000_i000_959" to="102332987#0"/>
 <trip depart="86.0" departLane="best" departSpeed="max" from="4353778#0" id="rs_c000_i000_982" to="58423646"/>
 <trip depart="86.0" departLane="best" departSpeed="max" from="-24552576" id="rs_c000_i000_987" to="4683037-AddedOffRampEdge"/>
 <trip depart="86.0" departLane="best" departSpeed="max" from="83163114#1" id="rs_c000_i000_990" to="39139679"/>
 <trip depart="86.0" departLane="best" departSpeed="max" from="-30141086#0" id="rs_c001_i000_186" to="38455846"/>
 <trip depart="87.0" departLane="best" departSpeed="max" from="117589024" id="rs_c000_i000_1004" to="25561760"/>
 <trip depart="89.0" departLane="best" departSpeed="max" from="358697049#1" id="rs_c000_i000_1020" to="133114633"/>
 <trip depart="91.0" departLane="best" departSpeed="max" from="183247520" id="rs_c000_i001_131" to="35062429#0"/>
 <trip depart="92.0" departLane="best" departSpeed="max" from="-26127182#1" id="rs_c000_i000_1060" to="26187755#0"/>
 <trip depart="93.0" departLane="best" departSpeed="max" from="364421365#0" id="rs_c000_i000_937" to="102332987#0"/>
 <trip depart="94.0" departLane="best" departSpeed="max" from="28903879" id="rs_c000_i001_135" to="24662114#0"/>
 <trip depart="96.0" departLane="best" departSpeed="max" from="15242129#1" id="rs_c000_i000_1095" to="38455846"/>
 <trip depart="96.0" departLane="best" departSpeed="max" from="-367815853#0" id="rs_c001_i000_204" to="133114633"/>
 <trip depart="97.0" departLane="best" departSpeed="max" from="-4468815#1" id="rs_c001_i000_210" to="61367454#1"/>
 <trip depart="98.0" departLane="best" departSpeed="max" from="-212694593#3" id="rs_c000_i002_19" to="26187755#0"/>
 <trip depart="98.0" departLane="best" departSpeed="max" from="-5234464" id="rs_c000_i000_1131" to="139217744"/>
 <trip depart="101.0" departLane="best" departSpeed="max" from="137996244#0" id="rs_c000_i000_1157" to="58423646"/>
 <trip depart="103.0" departLane="best" departSpeed="max" from="-4685772#0" id="rs_c000_i000_1188" to="24429370"/>
 <trip depart="103.0" departLane="best" departSpeed="max" from="642129591" id="rs_c000_i000_1189" to="102332987#0"/>
 <trip depart="108.0" departLane="best" departSpeed="max" from="-329365211#1" id="rs_c000_i001_161" to="45409283"/>
 <trip depart="110.0" departLane="best" departSpeed="max" from="29307942" id="rs_c000_i000_1246" to="24429370"/>
 <trip depart="111.0" departLane="best" departSpeed="max" from="-52885962" id="rs_c000_i001_169" to="133109576"/>
 <trip depart="113.0" departLane="best" departSpeed="max" from="-5921785#1" id="rs_c000_i000_1276" to="24429370"/>
 <trip depart="113.0" departLane="best" departSpeed="max" from="-76987970" id="rs_c000_i000_1283" to="34776006"/>
 <trip depart="113.0" departLane="best" departSpeed="max" from="-232983431" id="rs_c000_i000_1284" to="89746911#0"/>
 <trip depart="114.0" departLane="best" departSpeed="max" from="-4687354" id="rs_c000_i000_1286" to="29508371#0"/>
 <trip depart="114.0" departLane="best" departSpeed="max" from="-38807023" id="rs_c000_i000_1298" to="102332991"/>
 <trip depart="117.0" departLane="best" departSpeed="max" from="-48447058#0" id="rs_c000_i000_1321_part0" to="337799752"/>
 <trip depart="117.0" departLane="best" departSpeed="max" from="24423403#2" id="rs_c001_i000_241" to="26187755#0"/>
 <trip depart="118.0" departLane="best" departSpeed="max" from="-87397780" id="rs_c000_i000_1330" to="-329836527"/>
 <trip depart="118.0" departLane="best" departSpeed="max" from="-285876419#0" id="rs_c000_i000_1334" to="30682490"/>
 <trip depart="119.0" departLane="best" departSpeed="max" from="-108501685#0" id="rs_c000_i000_1349" to="225662323"/>
 <trip depart="121.0" departLane="best" departSpeed="max" from="-125143985#3" id="rs_c000_i000_1362" to="144246396#1"/>
 <trip depart="121.0" departLane="best" departSpeed="max" from="-965645046" id="rs_c000_i000_1371" to="45409283"/>
 <trip depart="122.0" departLane="best" departSpeed="max" from="-79474991" id="rs_c000_i000_1386" to="10621055"/>
 <trip depart="123.0" departLane="best" departSpeed="max" from="332195301" id="rs_c000_i000_1400" to="35062429#0"/>
 <trip depart="126.0" departLane="best" departSpeed="max" from="4691968#3" id="rs_c000_i000_1425" to="30289258"/>
 <trip depart="126.0" departLane="best" departSpeed="max" from="-5235967#0" id="rs_c000_i001_190" to="-5235818"/>
 <trip depart="127.0" departLane="best" departSpeed="max" from="-333156359#0" id="rs_c000_i001_191" to="116350100"/>
 <trip depart="128.0" departLane="best" departSpeed="max" from="-118155453" id="rs_c000_i001_193" to="58423646"/>
 <trip depart="129.0" departLane="best" departSpeed="max" from="-944997709" id="rs_c000_i000_1470" to="29508371#0"/>
 <trip depart="131.0" departLane="best" departSpeed="max" from="-287050887#3" id="rs_c000_i000_1483" to="30290213"/>
 <trip depart="131.0" departLane="best" departSpeed="max" from="-61371680#0" id="rs_c000_i000_1484" to="41882139"/>
 <trip depart="134.0" departLane="best" departSpeed="max" from="-772937593" id="rs_c000_i000_1502" to="133114633"/>
 <trip depart="134.0" departLane="best" departSpeed="max" from="109366608#1" id="rs_c000_i000_1511" to="102332987#0"/>
 <trip depart="134.0" departLane="best" departSpeed="max" from="-135654631" id="rs_c000_i001_198" to="89746911#0"/>
 <trip depart="135.0" departLane="best" departSpeed="max" from="30470974" id="rs_c000_i000_1515" to="102332987#0"/>
 <trip depart="137.0" departLane="best" departSpeed="max" from="10516236" id="rs_c000_i002_32" to="5234175"/>
 <trip depart="137.36" departLane="best" departSpeed="max" from="-222389334" id="rs_c001_i000_153" to="225662323"/>
 <trip depart="140.0" departLane="best" departSpeed="max" from="-4261835" id="rs_c001_i000_281_part0" to="131269034"/>
 <trip depart="141.0" departLane="best" departSpeed="max" from="-642129592#0" id="rs_c000_i000_1589" to="102332987#0"/>
 <trip depart="143.0" departLane="best" departSpeed="max" from="-125143981#1" id="rs_c000_i000_1618" to="26187755#0"/>
 <trip depart="143.0" departLane="best" departSpeed="max" from="-14994763" id="rs_c000_i000_1620" to="-5235818"/>
 <trip depart="143.0" departLane="best" departSpeed="max" from="4492786" id="rs_c000_i000_1621" to="102332991"/>
 <trip depart="143.0" departLane="best" departSpeed="max" from="266161713#1" id="rs_c000_i001_213" to="102332987#0"/>
 <trip depart="144.0" departLane="best" departSpeed="max" from="-6927021" id="rs_c001_i000_291" to="102332987#0"/>
 <trip depart="144.0" departLane="best" departSpeed="max" from="352818897" id="rs_c001_i000_294" to="30289399"/>
 <trip depart="144.0" departLane="best" departSpeed="max" from="-73013398" id="rs_c001_i002_6" to="609759377"/>
 <trip depart="145.0" departLane="best" departSpeed="max" from="-83510232#0" id="rs_c000_i001_218" to="6268824"/>
 <trip depart="149.0" departLane="best" departSpeed="max" from="30529010#1" id="rs_c000_i001_219" to="-5235818"/>
 <trip depart="151.0" departLane="best" departSpeed="max" from="249399721" id="rs_c001_i000_309" to="133114633"/>
 <trip depart="153.0" departLane="best" departSpeed="max" from="151876120" id="rs_c000_i000_1738_part0" to="-7918124#1"/>
 <trip depart="156.0" departLane="best" departSpeed="max" from="4227193" id="rs_c001_i001_1" to="102332987#0"/>
 <trip depart="156.0" departLane="best" departSpeed="max" from="121497159" id="rs_c000_i000_1753" to="225662323"/>
 <trip depart="156.0" departLane="best" departSpeed="max" from="-396449089#1" id="rs_c000_i000_1757" to="45409283"/>
 <trip depart="156.0" departLane="best" departSpeed="max" from="160202712" id="rs_c001_i000_319" to="16157339"/>
 <trip depart="160.0" departLane="best" departSpeed="max" from="4689744#2" id="rs_c000_i000_1805" to="89746911#0"/>
 <trip depart="162.0" departLane="best" departSpeed="max" from="36878390#3" id="rs_c000_i000_1817" to="207295788"/>
 <trip depart="163.0" departLane="best" departSpeed="max" from="-30261805" id="rs_c000_i000_1835" to="34760663"/>
 <trip depart="163.0" departLane="best" departSpeed="max" from="5051551#1" id="rs_c000_i000_1836" to="89746911#0"/>
 <trip depart="164.0" departLane="best" departSpeed="max" from="40608738" id="rs_c000_i000_1851_part0" to="307485275"/>
 <trip depart="165.0" departLane="best" departSpeed="max" from="-234540368" id="rs_c000_i000_1853" to="38325510"/>
 <trip depart="166.0" departLane="best" departSpeed="max" from="-169310108#2" id="rs_c000_i000_1591" to="133109576"/>
 <trip depart="166.0" departLane="best" departSpeed="max" from="-25920215#1" id="rs_c000_i000_1860" to="24429370"/>
 <trip depart="166.0" departLane="best" departSpeed="max" from="230548917#0" id="rs_c000_i000_1863" to="207295788"/>
 <trip depart="166.0" departLane="best" departSpeed="max" from="117626824" id="rs_c000_i000_1869" to="25561760"/>
 <trip depart="166.0" departLane="best" departSpeed="max" from="-126389506#0" id="rs_c000_i001_251" to="5234175"/>
 <trip depart="166.0" departLane="best" departSpeed="max" from="287182274#4" id="rs_c000_i001_253" to="25561760"/>
 <trip depart="169.0" departLane="best" departSpeed="max" from="-442031137#0" id="rs_c000_i000_1556" to="83903571"/>
 <trip depart="169.0" departLane="best" departSpeed="max" from="125351183" id="rs_c001_i000_337" to="26187755#0"/>
 <trip depart="170.0" departLane="best" departSpeed="max" from="136721678" id="rs_c000_i000_1908" to="58423646"/>
 <trip depart="171.0" departLane="best" departSpeed="max" from="5234587" id="rs_c000_i001_263" to="35062429#0"/>
 <trip depart="173.0" departLane="best" departSpeed="max" from="-396449089#1" id="rs_c000_i000_1931" to="45409283"/>
 <trip depart="174.0" departLane="best" departSpeed="max" from="-32016029#2" id="rs_c000_i000_1949" to="41882139"/>
 <trip depart="174.0" departLane="best" departSpeed="max" from="-10425858" id="rs_c000_i002_41" to="139124541#0"/>
 <trip depart="175.0" departLane="best" departSpeed="max" from="-7994512#0" id="rs_c000_i000_1953" to="25561760"/>
 <trip depart="175.0" departLane="best" departSpeed="max" from="4262166" id="rs_c000_i000_1954_part0" to="54200578"/>
 <trip depart="176.0" departLane="best" departSpeed="max" from="-366308474" id="rs_c000_i000_1964" to="-85564173"/>
 <trip depart="177.0" departLane="best" departSpeed="max" from="4691940" id="rs_c000_i000_1969" to="29508371#0"/>
 <trip depart="178.0" departLane="best" departSpeed="max" from="-32969734" id="rs_c000_i000_1990" to="24429370"/>
 <trip depart="182.0" departLane="best" departSpeed="max" from="368763697#1" id="rs_c000_i000_2022" to="45409283"/>
 <trip depart="182.0" departLane="best" departSpeed="max" from="-9639072#3" id="rs_c000_i000_2027" to="133114633"/>
 <trip depart="184.0" departLane="best" departSpeed="max" from="10426113#0" id="rs_c000_i001_279" to="333411021"/>
 <trip depart="185.0" departLane="best" departSpeed="max" from="-209845131" id="rs_c000_i000_2063" to="225662323"/>
 <trip depart="187.0" departLane="best" departSpeed="max" from="-4238028#1" id="rs_c000_i000_2074" to="102332987#0"/>
 <trip depart="188.0" departLane="best" departSpeed="max" from="-125143960#1" id="rs_c000_i000_2079" to="26187755#0"/>
 <trip depart="188.0" departLane="best" departSpeed="max" from="-62071809#1" id="rs_c001_i000_363" to="41882139"/>
 <trip depart="189.0" departLane="best" departSpeed="max" from="632149254#0" id="rs_c000_i000_2088" to="9702956"/>
 <trip depart="189.0" departLane="best" departSpeed="max" from="-4689427#2" id="rs_c000_i000_2089" to="29508371#0"/>
 <trip depart="190.0" departLane="best" departSpeed="max" from="-118567100" id="rs_c000_i001_284" to="30682490"/>
 <trip depart="194.0" departLane="best" departSpeed="max" from="-379530234" id="rs_c001_i001_48" to="5234175"/>
 <trip depart="195.0" departLane="best" departSpeed="max" from="-156117456" id="rs_c000_i000_2145" to="333411021"/>
 <trip depart="197.0" departLane="best" departSpeed="max" from="132071980" id="rs_c000_i000_2162" to="133114633"/>
 <trip depart="198.0" departLane="best" departSpeed="max" from="4227193" id="rs_c000_i002_5_part0" to="102332987#0"/>
 <trip depart="198.0" departLane="best" departSpeed="max" from="321098632#1" id="rs_c000_i000_2183" to="5205185"/>
 <trip depart="198.0" departLane="best" departSpeed="max" from="-5137917" id="rs_c000_i001_296" to="25980639"/>
 <trip depart="200.0" departLane="best" departSpeed="max" from="-140728549" id="rs_c000_i000_2204_part0" to="45409283"/>
 <trip depart="201.0" departLane="best" departSpeed="max" from="639244857#1" id="rs_c000_i001_138" to="30682490"/>
 <trip depart="201.0" departLane="best" departSpeed="max" from="-929213813" id="rs_c000_i000_2221" to="58423646"/>
 <trip depart="202.0" departLane="best" departSpeed="max" from="-22957183" id="rs_c000_i000_2228" to="10621055"/>
 <trip depart="205.0" departLane="best" departSpeed="max" from="-5042031" id="rs_c001_i000_398" to="89746911#0"/>
 <trip depart="205.91" departLane="best" departSpeed="max" from="-222389334" id="rs_c000_i000_789" to="225662323"/>
 <trip depart="206.0" departLane="best" departSpeed="max" from="-61410692#0" id="rs_c001_i000_403" to="30141087"/>
 <trip depart="207.0" departLane="best" departSpeed="max" from="-61645644" id="rs_c000_i000_2288" to="116350100"/>
 <trip depart="207.0" departLane="best" departSpeed="max" from="-183035440#0" id="rs_c000_i000_2295" to="34776006"/>
 <trip depart="208.0" departLane="best" departSpeed="max" from="30259450" id="rs_c000_i000_333" to="50433683"/>
 <trip depart="208.0" departLane="best" departSpeed="max" from="333137877#1" id="rs_c001_i000_405" to="333411021"/>
 <trip depart="211.0" departLane="best" departSpeed="max" from="-23197960" id="rs_c000_i001_318" to="5234175"/>
 <trip depart="212.0" departLane="best" departSpeed="max" from="-26295654#3" id="rs_c000_i000_2344" to="25980639"/>
 <trip depart="213.0" departLane="best" departSpeed="max" from="4485410#0" id="rs_c001_i000_414" to="55260909#0"/>
 <trip depart="218.0" departLane="best" departSpeed="max" from="-47518157#0" id="rs_c000_i000_2406" to="29508371#0"/>
 <trip depart="219.0" departLane="best" departSpeed="max" from="-125143981#1" id="rs_c000_i000_2416" to="26187755#0"/>
 <trip depart="220.0" departLane="best" departSpeed="max" from="40395154" id="rs_c001_i000_428" to="41882139"/>
 <trip depart="229.0" departLane="best" departSpeed="max" from="-108509404" id="rs_c000_i000_2426_part0" to="131269034"/>
 <trip depart="229.0" departLane="best" departSpeed="max" from="238004462" id="rs_c000_i002_54" to="24662114#0"/>
 <trip depart="230.0" departLane="best" departSpeed="max" from="4227193" id="rs_c000_i000_314" to="102332987#0"/>
 <trip depart="230.0" departLane="best" departSpeed="max" from="-44149187" id="rs_c000_i000_1927" to="29508371#0"/>
 <trip depart="231.0" departLane="best" departSpeed="max" from="-333329864" id="rs_c000_i001_342" to="333411021"/>
 <trip depart="232.0" departLane="best" departSpeed="max" from="4227193" id="rs_c000_i000_1093" to="102332987#0"/>
 <trip depart="232.0" departLane="best" departSpeed="max" from="-27093115" id="rs_c000_i000_2550" to="16157339"/>
 <trip depart="234.0" departLane="best" departSpeed="max" from="388757908" id="rs_c000_i000_2569" to="130742908#0"/>
 <trip depart="234.0" departLane="best" departSpeed="max" from="-10426057" id="rs_c000_i000_2577" to="35062429#0"/>
 <trip depart="234.05" departLane="best" departSpeed="max" from="30472577#0" id="rs_c000_i000_656" to="10621055"/>
 <trip depart="235.0" departLane="best" departSpeed="max" from="4871419" id="rs_c000_i000_2588" to="285128137"/>
 <trip depart="236.0" departLane="best" departSpeed="max" from="60952082#2" id="rs_c001_i001_57" to="158033990#1"/>
 <trip depart="236.0" departLane="best" departSpeed="max" from="-333329864" id="rs_c000_i000_2593" to="333411021"/>
 <trip depart="237.0" departLane="best" departSpeed="max" from="-125590811#0" id="rs_c000_i000_979_part1" to="133114633"/>
 <trip depart="237.0" departLane="best" departSpeed="max" from="125351170#1" id="rs_c000_i000_2608" to="5241393-AddedOffRampEdge"/>
 <trip depart="238.0" departLane="best" departSpeed="max" from="-245633712#0" id="rs_c001_i000_409" to="16157339"/>
 <trip depart="240.0" departLane="best" departSpeed="max" from="345099998" id="rs_c000_i000_2631" to="132932903"/>
 <trip depart="240.0" departLane="best" departSpeed="max" from="-83827692#0" id="rs_c000_i000_2639" to="10621055"/>
 <trip depart="240.0" departLane="best" departSpeed="max" from="-4644941#1" id="rs_c000_i000_2642" to="29508371#0"/>
 <trip depart="241.0" departLane="best" departSpeed="max" from="-85553505" id="rs_c000_i001_360" to="30290213"/>
 <trip depart="242.0" departLane="best" departSpeed="max" from="26421668#0" id="rs_c001_i000_471" to="58423646"/>
 <trip depart="243.0" departLane="best" departSpeed="max" from="35067049" id="rs_c001_i000_474" to="10621055"/>
 <trip depart="248.0" departLane="best" departSpeed="max" from="-352992052#0" id="rs_c001_i000_481" to="132932903"/>
 <trip depart="251.0" departLane="best" departSpeed="max" from="60952082#2" id="rs_c001_i000_486" to="158033990#1"/>
 <trip depart="253.0" departLane="best" departSpeed="max" from="-10363546" id="rs_c000_i000_2789_part0" to="-367011708"/>
 <trip depart="254.7" departLane="best" departSpeed="max" from="30287700#0" id="rs_c000_i000_1634" to="207295788"/>
 <trip depart="256.0" departLane="best" departSpeed="max" from="61669586" id="rs_c001_i000_496" to="5234175"/>
 <trip depart="256.0" departLane="best" departSpeed="max" from="24304061" id="rs_c000_i000_2810" to="133109576"/>
 <trip depart="256.0" departLane="best" departSpeed="max" from="-211120149" id="rs_c000_i000_2815" to="35062429#0"/>
 <trip depart="256.73" departLane="best" departSpeed="max" from="6268965#0" id="rs_c000_i000_407" to="4882716-AddedOffRampEdge"/>
 <trip depart="258.0" departLane="best" departSpeed="max" from="24976239" id="rs_c000_i001_383" to="25561760"/>
 <trip depart="262.0" departLane="best" departSpeed="max" from="-4685773#1" id="rs_c000_i000_2882" to="5234175"/>
 <trip depart="262.0" departLane="best" departSpeed="max" from="24423403#6" id="rs_c000_i001_397" to="144246396#1"/>
 <trip depart="265.0" departLane="best" departSpeed="max" from="-358441043#0" id="rs_c000_i000_2914" to="29508371#0"/>
 <trip depart="265.0" departLane="best" departSpeed="max" from="-10372364#0" id="rs_c000_i001_402" to="797819200"/>
 <trip depart="266.0" departLane="best" departSpeed="max" from="94124202" id="rs_c000_i000_2890" to="-370016267"/>
 <trip depart="266.0" departLane="best" departSpeed="max" from="-212694591" id="rs_c000_i000_2921" to="26187755#0"/>
 <trip depart="267.0" departLane="best" departSpeed="max" from="-211129670#0" id="rs_c001_i000_506" to="530282943"/>
 <trip depart="268.0" departLane="best" departSpeed="max" from="4227193" id="rs_c001_i000_18" to="261295098"/>
 <trip depart="268.0" departLane="best" departSpeed="max" from="-4263979#0" id="rs_c000_i000_2262" to="-26421407"/>
 <trip depart="270.0" departLane="best" departSpeed="max" from="261374485#6" id="rs_c000_i000_2984" to="10621055"/>
 <trip depart="271.0" departLane="best" departSpeed="max" from="30665190" id="rs_c000_i000_2328" to="132932903"/>
 <trip depart="271.0" departLane="best" departSpeed="max" from="312459271" id="rs_c001_i000_512" to="-15242129#1"/>
 <trip depart="272.0" departLane="best" departSpeed="max" from="88113499#1" id="rs_c000_i000_3009" to="45409283"/>
 <trip depart="273.0" departLane="best" departSpeed="max" from="73225130#1" id="rs_c001_i000_520_part0" to="56701424-AddedOffRampEdge"/>
 <trip depart="273.0" departLane="best" departSpeed="max" from="83506741" id="rs_c000_i000_3027" to="172879174-AddedOffRampEdge"/>
 <trip depart="275.0" departLane="best" departSpeed="max" from="10560717" id="rs_c000_i000_3048" to="29508371#0"/>
 <trip depart="277.0" departLane="best" departSpeed="max" from="-137834041#1" id="rs_c000_i000_3060" to="133114633"/>