<?xml version="1.0" encoding="utf-8"?>
<routes>
 <trip depart="1.0" departLane="best" departSpeed="max" from="-231402126#0" id="rs_c001_i001_0" to="-232983431"/>
 <trip depart="1.0" departLane="best" departSpeed="max" from="222389339" id="rs_c001_i000_1" to="-892203443"/>
 <trip depart="1.0" departLane="best" departSpeed="max" from="-30140997" id="rs_c000_i000_9_part0" to="-352568703"/>
 <trip depart="1.0" departLane="best" departSpeed="max" from="-285208604" id="rs_c000_i000_11" to="285208605"/>
 <trip depart="3.0" departLane="best" departSpeed="max" from="5079389" id="rs_c001_i000_5" to="230548917#0"/>
 <trip depart="4.0" departLane="best" departSpeed="max" from="-38807023" id="rs_c000_i000_48" to="-210457775#1"/>
 <trip depart="5.0" departLane="best" departSpeed="max" from="188997019" id="rs_c001_i001_2" to="-82198456"/>
 <trip depart="5.0" departLane="best" departSpeed="max" from="-125351162#1" id="rs_c000_i001_6" to="-24423403#9"/>
 <trip depart="5.0" departLane="best" departSpeed="max" from="115915280#1" id="rs_c000_i000_51_part0" to="-115915280#1"/>
 <trip depart="5.0" departLane="best" departSpeed="max" from="116049443#1" id="rs_c000_i000_59" to="-116049443#1"/>
 <trip depart="6.0" departLane="best" departSpeed="max" from="-8597242#1" id="rs_c000_i000_66" to="-367319945#0"/>
 <trip depart="6.0" departLane="best" departSpeed="max" from="-37296677" id="rs_c000_i000_73" to="-223964782#0"/>
 <trip depart="8.0" departLane="best" departSpeed="max" from="-125351135" id="rs_c001_i000_12" to="-95937728#3"/>
 <trip depart="8.0" departLane="best" departSpeed="max" from="-52673136" id="rs_c000_i000_105" to="-61367454#0"/>
 <trip depart="8.0" departLane="best" departSpeed="max" from="-30383562#0" id="rs_c000_i000_106" to="-9639075"/>
 <trip depart="8.0" departLane="best" departSpeed="max" from="-8730073" id="rs_c000_i000_94" to="-235013693#5"/>
 <trip depart="8.0" departLane="best" departSpeed="max" from="-62116257" id="rs_c000_i000_98" to="-75554984"/>
 <trip depart="9.0" departLane="best" departSpeed="max" from="-169310108#2" id="rs_c000_i000_53" to="-169310108#0"/>
 <trip depart="10.0" departLane="best" departSpeed="max" from="-30016028#1" id="rs_c000_i000_122" to="-125351142#7"/>
 <trip depart="12.0" departLane="best" departSpeed="max" from="5067770#1" id="rs_c000_i000_138" to="-235378181"/>
 <trip depart="12.0" departLane="best" departSpeed="max" from="-95937943#3" id="rs_c000_i000_139" to="-301079495#0"/>
 <trip depart="12.0" departLane="best" departSpeed="max" from="-100073149" id="rs_c000_i002_1" to="232003927#1"/>
 <trip depart="14.0" departLane="best" departSpeed="max" from="125828734" id="rs_c000_i001_15" to="340206715"/>
 <trip depart="15.0" departLane="best" departSpeed="max" from="-24466641" id="rs_c000_i000_161" to="24466652#2"/>
 <trip depart="16.0" departLane="best" departSpeed="max" from="353000468#8" id="rs_c000_i001_19" to="5042043"/>
 <trip depart="16.0" departLane="best" departSpeed="max" from="4233684" id="rs_c000_i001_20" to="183236316"/>
 <trip depart="17.0" departLane="best" departSpeed="max" from="-137996247" id="rs_c000_i000_194" to="-4353778#2"/>
 <trip depart="17.0" departLane="best" departSpeed="max" from="-212690606" id="rs_c000_i000_197" to="-10508541"/>
 <trip depart="17.0" departLane="best" departSpeed="max" from="35722785#1" id="rs_c000_i000_202" to="34733209"/>
 <trip depart="18.0" departLane="best" departSpeed="max" from="-63134322#1" id="rs_c001_i000_31" to="-51722317"/>
 <trip depart="18.0" departLane="best" departSpeed="max" from="20358582#0" id="rs_c000_i000_221" to="141972838#1"/>
 <trip depart="19.0" departLane="best" departSpeed="max" from="10516147#0" id="rs_c000_i000_224" to="10516236"/>
 <trip depart="20.0" departLane="best" departSpeed="max" from="307014052#1" id="rs_c000_i000_232" to="307014052#2"/>
 <trip depart="21.0" departLane="best" departSpeed="max" from="80323717#1" id="rs_c000_i000_247" to="331558619#1"/>
 <trip depart="21.0" departLane="best" departSpeed="max" from="157703265#0" id="rs_c000_i000_249" to="157703265#1"/>
 <trip depart="21.0" departLane="best" departSpeed="max" from="125143975" id="rs_c000_i000_253" to="-125351142#4"/>
 <trip depart="21.0" departLane="best" departSpeed="max" from="42676340#2" id="rs_c000_i000_259" to="307653254"/>
 <trip depart="22.0" departLane="best" departSpeed="max" from="285137507" id="rs_c000_i000_262" to="-285137499"/>
 <trip depart="23.0" departLane="best" departSpeed="max" from="-122529098#1" id="rs_c000_i000_277" to="4353778#0"/>
 <trip depart="24.0" departLane="best" departSpeed="max" from="-101372216" id="rs_c001_i000_40" to="101376874#1"/>
 <trip depart="24.0" departLane="best" departSpeed="max" from="-117643614#1" id="rs_c000_i001_32" to="-117643614#0"/>
 <trip depart="25.0" departLane="best" departSpeed="max" from="55364853" id="rs_c000_i000_294" to="222885381"/>
 <trip depart="25.0" departLane="best" departSpeed="max" from="-125351135" id="rs_c000_i000_299" to="-95937728#3"/>
 <trip depart="26.0" departLane="best" departSpeed="max" from="195552850" id="rs_c000_i000_311" to="58125335#3"/>
 <trip depart="27.0" departLane="best" departSpeed="max" from="-74011129#0" id="rs_c000_i001_35" to="-63322106#0"/>
 <trip depart="28.0" departLane="best" departSpeed="max" from="96202732" id="rs_c001_i000_46" to="191201120"/>
 <trip depart="28.0" departLane="best" departSpeed="max" from="-122590749" id="rs_c000_i000_324" to="-122590748"/>
 <trip depart="28.0" departLane="best" departSpeed="max" from="125351134#1" id="rs_c000_i000_329" to="125351114"/>
 <trip depart="29.0" departLane="best" departSpeed="max" from="-44149187" id="rs_c000_i000_326" to="993027490"/>
 <trip depart="29.0" departLane="best" departSpeed="max" from="4246321" id="rs_c001_i000_49" to="-4246322#0"/>
 <trip depart="30.0" departLane="best" departSpeed="max" from="-24423625#2" id="rs_c000_i000_347" to="24423625#2"/>
 <trip depart="30.0" departLane="best" departSpeed="max" from="-4685994#1" id="rs_c000_i000_349" to="38330323#1"/>
 <trip depart="31.0" departLane="best" departSpeed="max" from="-285876419#0" id="rs_c000_i000_358" to="184015984"/>
 <trip depart="32.0" departLane="best" departSpeed="max" from="-100018570#0" id="rs_c000_i000_374" to="-100018560"/>
 <trip depart="32.0" departLane="best" departSpeed="max" from="-129785060" id="rs_c000_i000_376" to="-350148486"/>
 <trip depart="33.0" departLane="best" departSpeed="max" from="-285133710" id="rs_c001_i000_57" to="285133712"/>
 <trip depart="33.0" departLane="best" departSpeed="max" from="-32757187" id="rs_c001_i000_61" to="-75516488#0"/>
 <trip depart="33.0" departLane="best" departSpeed="max" from="-369150317#0" id="rs_c000_i000_381" to="-132047178"/>
 <trip depart="33.0" departLane="best" departSpeed="max" from="290255300" id="rs_c000_i000_384" to="136721679#2"/>
 <trip depart="34.0" departLane="best" departSpeed="max" from="309477782#0" id="rs_c001_i000_64" to="343437497#2"/>
 <trip depart="34.0" departLane="best" departSpeed="max" from="-8135855" id="rs_c001_i000_67" to="-30471449"/>
 <trip depart="34.0" departLane="best" departSpeed="max" from="1080298604" id="rs_c001_i000_68" to="26369517"/>
 <trip depart="35.0" departLane="best" departSpeed="max" from="-35155912" id="rs_c001_i000_69" to="338862108#2"/>
 <trip depart="35.0" departLane="best" departSpeed="max" from="-4263848" id="rs_c000_i000_402_part0" to="-178132932"/>
 <trip depart="35.0" departLane="best" departSpeed="max" from="35605874#2" id="rs_c000_i000_411" to="35605874#3"/>
 <trip depart="36.0" departLane="best" departSpeed="max" from="-125590811#0" id="rs_c000_i000_393" to="180976534#1"/>
 <trip depart="36.0" departLane="best" departSpeed="max" from="-125351177#1" id="rs_c000_i000_424" to="-125351177#0"/>
 <trip depart="37.0" departLane="best" departSpeed="max" from="-4238018#0" id="rs_c001_i000_78" to="-192596483"/>
 <trip depart="40.0" departLane="best" departSpeed="max" from="139217740" id="rs_c001_i000_83" to="-75718524"/>
 <trip depart="41.0" departLane="best" departSpeed="max" from="358438894" id="rs_c000_i000_469" to="179752645"/>
 <trip depart="41.0" departLane="best" departSpeed="max" from="10557712" id="rs_c000_i000_475" to="-26367999"/>
 <trip depart="41.0" departLane="best" departSpeed="max" from="-579053759" id="rs_c000_i000_476" to="-40109005#0"/>
 <trip depart="42.0" departLane="best" departSpeed="max" from="-72728809" id="rs_c001_i000_87" to="27246253"/>
 <trip depart="42.0" departLane="best" departSpeed="max" from="-5041965#0" id="rs_c000_i001_57" to="-52021728"/>
 <trip depart="42.0" departLane="best" departSpeed="max" from="-6522799" id="rs_c000_i000_482" to="-4952783#0"/>
 <trip depart="43.0" departLane="best" departSpeed="max" from="-10426204#1" id="rs_c001_i000_90_part0" to="-10426204#0"/>
 <trip depart="43.0" departLane="best" departSpeed="max" from="27162003" id="rs_c001_i000_91" to="-219758366"/>
 <trip depart="43.0" departLane="best" departSpeed="max" from="-4261808" id="rs_c000_i000_491" to="-22958692#0"/>
 <trip depart="44.0" departLane="best" departSpeed="max" from="-76177239" id="rs_c001_i000_86" to="74059118#1"/>
 <trip depart="45.0" departLane="best" departSpeed="max" from="-24423403#10" id="rs_c000_i000_508" to="-125351162#0"/>
 <trip depart="46.0" departLane="best" departSpeed="max" from="74322492#1" id="rs_c001_i000_101" to="74322499#1"/>
 <trip depart="46.0" departLane="best" departSpeed="max" from="266188545" id="rs_c000_i000_521" to="266161715#1"/>
 <trip depart="47.0" departLane="best" departSpeed="max" from="125351134#0" id="rs_c000_i000_532" to="-95937941#0"/>
 <trip depart="47.0" departLane="best" departSpeed="max" from="-136721671" id="rs_c000_i000_533" to="-132047178"/>
 <trip depart="48.0" departLane="best" departSpeed="max" from="-116049439#1" id="rs_c001_i000_104" to="-929213813"/>
 <trip depart="48.0" departLane="best" departSpeed="max" from="-125351142#6" id="rs_c000_i000_551" to="-125351142#4"/>
 <trip depart="48.0" departLane="best" departSpeed="max" from="-84667269" id="rs_c000_i000_552" to="-84667272"/>
 <trip depart="49.0" departLane="best" departSpeed="max" from="141783126#0" id="rs_c000_i000_564" to="141783126#1"/>
 <trip depart="51.0" departLane="best" departSpeed="max" from="695626572" id="rs_c000_i000_578" to="24426767#0"/>
 <trip depart="51.0" departLane="best" departSpeed="max" from="82284036#1" id="rs_c000_i000_586" to="674068354"/>
 <trip depart="52.0" departLane="best" departSpeed="max" from="-212706393" id="rs_c000_i000_589" to="161182980#0"/>
 <trip depart="52.0" departLane="best" departSpeed="max" from="-118869284#1" id="rs_c000_i000_598" to="122529094#4"/>
 <trip depart="53.0" departLane="best" departSpeed="max" from="-4650177#0" id="rs_c000_i000_609" to="4646502#0"/>
 <trip depart="53.0" departLane="best" departSpeed="max" from="184015984" id="rs_c000_i000_611_part0" to="-116767653"/>
 <trip depart="53.0" departLane="best" departSpeed="max" from="30326559" id="rs_c000_i000_612" to="30326560"/>
 <trip depart="53.0" departLane="best" departSpeed="max" from="46122296" id="rs_c000_i000_617" to="-219760677#0"/>
 <trip depart="54.0" departLane="best" departSpeed="max" from="4631284" id="rs_c001_i000_117" to="71322357#0"/>
 <trip depart="55.0" departLane="best" departSpeed="max" from="20358582#0" id="rs_c000_i000_646_part0" to="141972838#1"/>
 <trip depart="55.0" departLane="best" departSpeed="max" from="-61566225#0" id="rs_c000_i000_653" to="-61279838#0"/>
 <trip depart="56.0" departLane="best" departSpeed="max" from="-221166765" id="rs_c000_i000_359_part0" to="-4702162"/>
 <trip depart="56.0" departLane="best" departSpeed="max" from="-4685938" id="rs_c000_i002_8" to="-158882487#0"/>
 <trip depart="56.0" departLane="best" departSpeed="max" from="160632153#0" id="rs_c001_i000_121" to="160632153#1"/>
 <trip depart="57.0" departLane="best" departSpeed="max" from="26369517" id="rs_c000_i001_73" to="704809565#0"/>
 <trip depart="57.0" departLane="best" departSpeed="max" from="61496433" id="rs_c000_i001_79" to="-61543316#0"/>
 <trip depart="57.0" departLane="best" departSpeed="max" from="-46596869" id="rs_c000_i000_666" to="-46596597#0"/>
 <trip depart="57.0" departLane="best" departSpeed="max" from="195552019#1" id="rs_c001_i000_123" to="195552850"/>
 <trip depart="59.0" departLane="best" departSpeed="max" from="130735705" id="rs_c000_i001_84" to="-333156359#3"/>
 <trip depart="59.0" departLane="best" departSpeed="max" from="-230515581#0" id="rs_c000_i000_701" to="26469184"/>
 <trip depart="60.0" departLane="best" departSpeed="max" from="140493079" id="rs_c001_i000_24" to="-38028127#0"/>
 <trip depart="61.0" departLane="best" departSpeed="max" from="-237367539" id="rs_c000_i000_716" to="674486879#3"/>
 <trip depart="61.0" departLane="best" departSpeed="max" from="-235013693#5" id="rs_c000_i000_718" to="-235013693#4"/>
 <trip depart="61.0" departLane="best" departSpeed="max" from="5047446#1" id="rs_c000_i000_720" to="-5047242#3"/>
 <trip depart="61.0" departLane="best" departSpeed="max" from="-13615786" id="rs_c000_i000_723" to="34027813"/>
 <trip depart="61.0" departLane="best" departSpeed="max" from="-100018567" id="rs_c001_i000_132" to="-210282070"/>
 <trip depart="62.0" departLane="best" departSpeed="max" from="307014052#5" id="rs_c001_i000_136" to="139217740"/>
 <trip depart="63.0" departLane="best" departSpeed="max" from="256565269#1" id="rs_c000_i000_748" to="256565259#0"/>
 <trip depart="63.0" departLane="best" departSpeed="max" from="-5096970" id="rs_c001_i000_138" to="803452286#0"/>
 <trip depart="64.0" departLane="best" departSpeed="max" from="4264003" id="rs_c000_i000_758" to="-108151818#1"/>
 <trip depart="64.0" departLane="best" departSpeed="max" from="-4680630" id="rs_c001_i000_143" to="83496334"/>
 <trip depart="67.0" departLane="best" departSpeed="max" from="-442031137#0" id="rs_c001_i000_58" to="-324488712"/>
 <trip depart="67.0" departLane="best" departSpeed="max" from="-84017983" id="rs_c000_i001_97" to="-84656707#0"/>
 <trip depart="69.0" departLane="best" departSpeed="max" from="-157858313#0" id="rs_c000_i000_804" to="124540717"/>
 <trip depart="69.0" departLane="best" departSpeed="max" from="364419352#0" id="rs_c000_i000_810" to="327223066"/>
 <trip depart="70.0" departLane="best" departSpeed="max" from="-4952724" id="rs_c000_i000_815" to="53522499#1"/>
 <trip depart="71.0" departLane="best" departSpeed="max" from="-209845131" id="rs_c000_i000_818" to="-324466728"/>
 <trip depart="72.0" departLane="best" departSpeed="max" from="-53355161" id="rs_c000_i000_841" to="53355162"/>
 <trip depart="72.0" departLane="best" departSpeed="max" from="4644958" id="rs_c000_i000_842" to="-4689427#0"/>
 <trip depart="72.0" departLane="best" departSpeed="max" from="-131119719" id="rs_c001_i001_20_part0" to="-108504383"/>
 <trip depart="73.0" departLane="best" departSpeed="max" from="115915280#0" id="rs_c000_i000_850_part0" to="-241330743"/>
 <trip depart="73.0" departLane="best" departSpeed="max" from="333338273" id="rs_c000_i000_856_part0" to="30529050#1"/>
 <trip depart="74.0" departLane="best" departSpeed="max" from="306528028" id="rs_c000_i001_106" to="-306528031"/>
 <trip depart="74.0" departLane="best" departSpeed="max" from="-95100609" id="rs_c000_i000_864" to="-301145897"/>
 <trip depart="74.0" departLane="best" departSpeed="max" from="100016823#2" id="rs_c000_i000_866" to="117626823#0"/>
 <trip depart="74.0" departLane="best" departSpeed="max" from="-126904280" id="rs_c000_i000_869" to="30690516#0"/>
 <trip depart="75.0" departLane="best" departSpeed="max" from="-328253309#0" id="rs_c000_i001_110" to="126449315#0"/>
 <trip depart="75.0" departLane="best" departSpeed="max" from="-237367748#2" id="rs_c000_i000_879" to="4237991"/>
 <trip depart="76.0" departLane="best" departSpeed="max" from="-4650197#0" id="rs_c000_i000_809_part0" to="285456486"/>
 <trip depart="76.0" departLane="best" departSpeed="max" from="26040294#1" id="rs_c000_i000_880" to="26040294#2"/>
 <trip depart="76.0" departLane="best" departSpeed="max" from="-8730073" id="rs_c000_i000_884" to="8730073"/>
 <trip depart="76.0" departLane="best" departSpeed="max" from="117099159#2" id="rs_c000_i000_885" to="26085515#4"/>
 <trip depart="78.0" departLane="best" departSpeed="max" from="5137917" id="rs_c000_i000_895" to="-75658057#0"/>
 <trip depart="78.0" departLane="best" departSpeed="max" from="-96809683#1" id="rs_c000_i000_912" to="-96809683#0"/>
 <trip depart="79.0" departLane="best" departSpeed="max" from="-63322102#1" id="rs_c000_i000_918" to="-63322102#0"/>
 <trip depart="80.0" departLane="best" departSpeed="max" from="96915239#1" id="rs_c000_i000_928" to="213132380"/>
 <trip depart="80.0" departLane="best" departSpeed="max" from="-329359058" id="rs_c000_i000_929" to="132814905"/>
 <trip depart="80.0" departLane="best" departSpeed="max" from="-62419359#0" id="rs_c001_i001_22" to="62513944#1"/>
 <trip depart="81.0" departLane="best" departSpeed="max" from="58265986#0" id="rs_c000_i000_935_part0" to="58265965#2"/>
 <trip depart="82.0" departLane="best" departSpeed="max" from="-126906449" id="rs_c000_i001_118" to="-5065920"/>
 <trip depart="82.0" departLane="best" departSpeed="max" from="52707668" id="rs_c000_i000_939" to="24552630#3"/>
 <trip depart="82.0" departLane="best" departSpeed="max" from="-5234278#1" id="rs_c000_i000_940" to="202342090#1"/>
 <trip depart="82.0" departLane="best" departSpeed="max" from="-367815853#2" id="rs_c000_i000_943" to="-367815853#0"/>
 <trip depart="82.0" departLane="best" departSpeed="max" from="-136721672" id="rs_c000_i000_947" to="-852319713#0"/>
 <trip depart="83.0" departLane="best" departSpeed="max" from="-295416118#1" id="rs_c000_i000_960" to="-295416118#0"/>
 <trip depart="83.0" departLane="best" departSpeed="max" from="879169705" id="rs_c000_i000_961" to="4700978"/>
 <trip depart="84.0" departLane="best" departSpeed="max" from="-442031137#0" id="rs_c000_i000_835" to="-324488712"/>
 <trip depart="84.0" departLane="best" departSpeed="max" from="33786979" id="rs_c000_i000_967" to="220368967#1"/>
 <trip depart="85.0" departLane="best" departSpeed="max" from="-188890214" id="rs_c000_i000_971" to="39297416"/>
 <trip depart="86.0" departLane="best" departSpeed="max" from="9702538" id="rs_c001_i000_185" to="30471383#0"/>
 <trip depart="86.0" departLane="best" departSpeed="max" from="-30141086#0" id="rs_c001_i000_186" to="29712025#0"/>
 <trip depart="87.0" departLane="best" departSpeed="max" from="-62162661" id="rs_c001_i000_190" to="-62162663#0"/>
 <trip depart="88.0" departLane="best" departSpeed="max" from="-95195859#0" id="rs_c000_i000_1013" to="235008345"/>
 <trip depart="89.0" departLane="best" departSpeed="max" from="24423403#0" id="rs_c000_i000_1021" to="24423403#1"/>
 <trip depart="90.0" departLane="best" departSpeed="max" from="-30618813" id="rs_c000_i000_1032" to="-166503442"/>
 <trip depart="90.0" departLane="best" departSpeed="max" from="-58767757#1" id="rs_c001_i000_195" to="58767757#1"/>
 <trip depart="90.0" departLane="best" departSpeed="max" from="-4263848" id="rs_c001_i002_3_part0" to="-178132932"/>
 <trip depart="91.0" departLane="best" departSpeed="max" from="183247520" id="rs_c000_i001_131" to="183247521#1"/>
 <trip depart="92.0" departLane="best" departSpeed="max" from="333144376" id="rs_c000_i000_1052" to="-124537759"/>
 <trip depart="93.0" departLane="best" departSpeed="max" from="-28554443" id="rs_c000_i000_1067" to="-83592306#0"/>
 <trip depart="93.0" departLane="best" departSpeed="max" from="129827593#1" id="rs_c000_i000_1069_part0" to="130183371"/>
 <trip depart="94.0" departLane="best" departSpeed="max" from="-133113824" id="rs_c000_i000_1078" to="-4242689#2"/>
 <trip depart="95.0" departLane="best" departSpeed="max" from="-5051707" id="rs_c000_i000_1082" to="-4682949#1"/>
 <trip depart="96.0" departLane="best" departSpeed="max" from="-367815853#0" id="rs_c001_i000_204" to="-123120902"/>
 <trip depart="96.0" departLane="best" departSpeed="max" from="-14573382#2" id="rs_c001_i000_205" to="-14573382#1"/>
 <trip depart="97.0" departLane="best" departSpeed="max" from="-28213037" id="rs_c000_i000_1108_part0" to="-28213036"/>
 <trip depart="97.0" departLane="best" departSpeed="max" from="-30471057#0" id="rs_c000_i000_1122" to="6927279"/>
 <trip depart="97.0" departLane="best" departSpeed="max" from="-4468815#1" id="rs_c001_i000_210" to="4468805"/>
 <trip depart="98.0" departLane="best" departSpeed="max" from="-212694593#3" id="rs_c000_i002_19" to="-212694593#2"/>
 <trip depart="98.0" departLane="best" departSpeed="max" from="-74322476#0" id="rs_c000_i000_1133" to="-74322499#0"/>
 <trip depart="99.0" departLane="best" departSpeed="max" from="125351188#1" id="rs_c000_i000_1137" to="-125351142#6"/>
 <trip depart="99.0" departLane="best" departSpeed="max" from="-81146813" id="rs_c000_i001_142" to="-75614918#0"/>
 <trip depart="99.0" departLane="best" departSpeed="max" from="211332272#0" id="rs_c000_i001_144" to="428107746#1"/>
 <trip depart="100.0" departLane="best" departSpeed="max" from="84017451#0" id="rs_c000_i000_1143" to="-84016143"/>
 <trip depart="101.0" departLane="best" departSpeed="max" from="-26698200" id="rs_c001_i000_214" to="-4229447#2"/>
 <trip depart="102.0" departLane="best" departSpeed="max" from="-364021792" id="rs_c001_i000_220" to="-125589545"/>
 <trip depart="103.0" departLane="best" departSpeed="max" from="238004462" id="rs_c000_i000_1185" to="329836527"/>
 <trip depart="103.0" departLane="best" departSpeed="max" from="358697049#0" id="rs_c000_i000_1186" to="358697049#1"/>
 <trip depart="103.0" departLane="best" departSpeed="max" from="73849826" id="rs_c000_i000_1187" to="15878994"/>
 <trip depart="103.0" departLane="best" departSpeed="max" from="-73848515#0" id="rs_c000_i002_21" to="-73847907#0"/>
 <trip depart="103.0" departLane="best" departSpeed="max" from="-4361529#0" id="rs_c001_i002_4" to="26165754#1"/>
 <trip depart="104.0" departLane="best" departSpeed="max" from="-119051530" id="rs_c000_i000_1191" to="119051529#1"/>
 <trip depart="104.0" departLane="best" departSpeed="max" from="552021861#0" id="rs_c000_i000_1199" to="352818908#1"/>
 <trip depart="104.0" departLane="best" departSpeed="max" from="353195905" id="rs_c000_i001_152" to="123082711#2"/>
 <trip depart="104.0" departLane="best" departSpeed="max" from="-333035352#0" id="rs_c000_i001_153" to="-10560697#3"/>
 <trip depart="104.0" departLane="best" departSpeed="max" from="-192591535#1" id="rs_c001_i000_224" to="-192591535#0"/>
 <trip depart="105.0" departLane="best" departSpeed="max" from="24937052#0" id="rs_c000_i001_155" to="204323593"/>
 <trip depart="107.0" departLane="best" departSpeed="max" from="-34777320" id="rs_c000_i000_1213" to="-24399325#0"/>
 <trip depart="107.0" departLane="best" departSpeed="max" from="-4485423" id="rs_c000_i000_1216" to="-71233702"/>
 <trip depart="107.0" departLane="best" departSpeed="max" from="-324466728" id="rs_c001_i000_226" to="107356086#1"/>
 <trip depart="109.0" departLane="best" departSpeed="max" from="-81146813" id="rs_c000_i000_1232" to="-75614918#0"/>
 <trip depart="110.0" departLane="best" departSpeed="max" from="-117099159#3" id="rs_c000_i000_1243" to="-26085515#3"/>
 <trip depart="111.0" departLane="best" departSpeed="max" from="-42902346#1" id="rs_c000_i000_1260" to="28918381#4"/>
 <trip depart="111.0" departLane="best" departSpeed="max" from="-52885962" id="rs_c000_i001_169" to="24552808#1"/>
 <trip depart="112.0" departLane="best" departSpeed="max" from="4246321" id="rs_c001_i000_233" to="-4246322#0"/>
 <trip depart="112.0" departLane="best" departSpeed="max" from="-4263976#0" id="rs_c001_i000_235_part0" to="34571633#1"/>
 <trip depart="113.0" departLane="best" departSpeed="max" from="-10560448#0" id="rs_c000_i000_1272" to="-5042136#1"/>
 <trip depart="113.0" departLane="best" departSpeed="max" from="-5921785#1" id="rs_c000_i000_1276" to="-5921785#0"/>
 <trip depart="113.0" departLane="best" departSpeed="max" from="125689487#3" id="rs_c000_i000_1282" to="25894166#0"/>
 <trip depart="117.0" departLane="best" departSpeed="max" from="-9640099" id="rs_c000_i001_178" to="-333329863#0"/>
 <trip depart="117.0" departLane="best" departSpeed="max" from="24423403#2" id="rs_c001_i000_241" to="24423403#3"/>
 <trip depart="118.0" departLane="best" departSpeed="max" from="-158541121" id="rs_c000_i000_1328" to="-306525102"/>
 <trip depart="118.0" departLane="best" departSpeed="max" from="-285876419#0" id="rs_c000_i000_1334" to="184015984"/>
 <trip depart="118.0" departLane="best" departSpeed="max" from="-62513944#0" id="rs_c000_i000_1339" to="61102971#1"/>
 <trip depart="119.0" departLane="best" departSpeed="max" from="-53355161" id="rs_c000_i000_1346" to="53355162"/>
 <trip depart="119.0" departLane="best" departSpeed="max" from="-46606162" id="rs_c000_i000_1350" to="125591002"/>
 <trip depart="119.0" departLane="best" departSpeed="max" from="846117750" id="rs_c000_i001_179" to="846117751"/>
 <trip depart="120.0" departLane="best" departSpeed="max" from="125684101#0" id="rs_c000_i001_171" to="12163379#0"/>
 <trip depart="120.0" departLane="best" departSpeed="max" from="-117643624" id="rs_c000_i000_1352" to="62106371#1"/>
 <trip depart="121.0" departLane="best" departSpeed="max" from="-767377513" id="rs_c000_i000_1370" to="-208026487#0"/>
 <trip depart="121.0" departLane="best" departSpeed="max" from="333156359#5" id="rs_c000_i000_1374" to="-156117446#2"/>
 <trip depart="121.0" departLane="best" departSpeed="max" from="5091199" id="rs_c001_i000_246" to="62059875#1"/>
 <trip depart="122.0" departLane="best" departSpeed="max" from="42793238#0" id="rs_c000_i000_1376" to="-98158886#0"/>
 <trip depart="122.0" departLane="best" departSpeed="max" from="-61233014#1" id="rs_c000_i000_1384" to="-61186334"/>
 <trip depart="122.0" departLane="best" departSpeed="max" from="-4644941#4" id="rs_c000_i000_1390" to="-4644941#3"/>
 <trip depart="123.0" departLane="best" departSpeed="max" from="-4260589" id="rs_c000_i000_1394" to="-116400267"/>
 <trip depart="123.0" departLane="best" departSpeed="max" from="-5036444#0" id="rs_c001_i000_251" to="-204924353#0"/>
 <trip depart="123.0" departLane="best" departSpeed="max" from="126449231#0" id="rs_c001_i000_252" to="93670633#1"/>
 <trip depart="124.0" departLane="best" departSpeed="max" from="4910791" id="rs_c000_i000_1410" to="126499095"/>
 <trip depart="124.0" departLane="best" departSpeed="max" from="-148895753" id="rs_c001_i000_254_part0" to="-4263976#0"/>
 <trip depart="126.0" departLane="best" departSpeed="max" from="-4642321" id="rs_c000_i000_1426" to="95938333#1"/>
 <trip depart="126.0" departLane="best" departSpeed="max" from="-24049140#2" id="rs_c000_i000_1433" to="-24049140#1"/>
 <trip depart="127.0" departLane="best" departSpeed="max" from="-22958409" id="rs_c000_i000_1440" to="-27093114"/>
 <trip depart="127.0" departLane="best" departSpeed="max" from="136864086" id="rs_c000_i000_1442" to="-136864084#0"/>
 <trip depart="128.0" departLane="best" departSpeed="max" from="77889443#3" id="rs_c000_i000_614" to="28740389#1"/>
 <trip depart="128.0" departLane="best" departSpeed="max" from="-93884331" id="rs_c000_i000_1447" to="285328363"/>
 <trip depart="131.0" departLane="best" departSpeed="max" from="-61371680#0" id="rs_c000_i000_1484" to="8102541"/>
 <trip depart="131.0" departLane="best" departSpeed="max" from="4353778#0" id="rs_c000_i000_1487" to="-57726375#2"/>
 <trip depart="132.0" departLane="best" departSpeed="max" from="4263977#1" id="rs_c000_i000_1494_part0" to="34571633#0"/>
 <trip depart="132.0" departLane="best" departSpeed="max" from="95937941#1" id="rs_c000_i002_31" to="30016027"/>
 <trip depart="133.0" departLane="best" departSpeed="max" from="4233517#1" id="rs_c000_i001_196" to="34495949"/>
 <trip depart="134.0" departLane="best" departSpeed="max" from="125351165#1" id="rs_c000_i000_1506" to="-212694593#0"/>
 <trip depart="134.0" departLane="best" departSpeed="max" from="-135654631" id="rs_c000_i001_198" to="98528234#1"/>
 <trip depart="135.0" departLane="best" departSpeed="max" from="-71267148" id="rs_c000_i000_1524" to="28740320#1"/>
 <trip depart="136.0" departLane="best" departSpeed="max" from="-10426171#1" id="rs_c000_i000_1528" to="-10426171#0"/>
 <trip depart="136.0" departLane="best" departSpeed="max" from="-108262963#0" id="rs_c000_i000_1532" to="-123544948#0"/>
 <trip depart="136.0" departLane="best" departSpeed="max" from="10559201" id="rs_c000_i001_200" to="-84639212"/>
 <trip depart="136.0" departLane="best" departSpeed="max" from="703967772" id="rs_c001_i000_276" to="703967773"/>
 <trip depart="137.0" departLane="best" departSpeed="max" from="-314424813" id="rs_c000_i000_1534" to="-102282708#0"/>
 <trip depart="137.0" departLane="best" departSpeed="max" from="-74053293" id="rs_c000_i000_1544" to="-74053291"/>
 <trip depart="138.0" departLane="best" departSpeed="max" from="130681798#1" id="rs_c000_i002_2" to="-94550382"/>
 <trip depart="138.0" departLane="best" departSpeed="max" from="-169310108#2" id="rs_c000_i000_1521" to="-169310108#0"/>
 <trip depart="138.0" departLane="best" departSpeed="max" from="-4689427#1" id="rs_c000_i000_1552" to="-4689427#0"/>
 <trip depart="138.0" departLane="best" departSpeed="max" from="-109380700#2" id="rs_c000_i000_1555" to="-109380700#0"/>
 <trip depart="138.0" departLane="best" departSpeed="max" from="-6933813" id="rs_c000_i000_1561" to="-337470015#0"/>
 <trip depart="139.0" departLane="best" departSpeed="max" from="125351126#0" id="rs_c000_i000_1576" to="125351126#1"/>
 <trip depart="140.0" departLane="best" departSpeed="max" from="-36912244#1" id="rs_c000_i000_573" to="-36912244#0"/>
 <trip depart="140.0" departLane="best" departSpeed="max" from="-475467959#1" id="rs_c000_i000_1583_part0" to="89813391"/>