<?xml version="1.0" encoding="utf-8"?>
<routes>
 <trip depart="1.0" departLane="best" departSpeed="max" from="321098632#1" id="rs_c001_i000_0" to="126140573#0"/>
 <trip depart="1.0" departLane="best" departSpeed="max" from="-231402126#0" id="rs_c001_i001_0" to="-232983431"/>
 <trip depart="1.0" departLane="best" departSpeed="max" from="222389339" id="rs_c001_i000_1" to="-892203443"/>
 <trip depart="1.0" departLane="best" departSpeed="max" from="79122894" id="rs_c000_i001_0" to="-192591526"/>
 <trip depart="1.0" departLane="best" departSpeed="max" from="-9640099" id="rs_c000_i000_7" to="-333329863#0"/>
 <trip depart="1.0" departLane="best" departSpeed="max" from="-30140997" id="rs_c000_i000_9_part0" to="-352568703"/>
 <trip depart="1.0" departLane="best" departSpeed="max" from="-285208604" id="rs_c000_i000_11" to="285208605"/>
 <trip depart="2.0" departLane="best" departSpeed="max" from="161182980#0" id="rs_c000_i000_21" to="132855661#3"/>
 <trip depart="2.0" departLane="best" departSpeed="max" from="-5235996#0" id="rs_c001_i000_2" to="124538316"/>
 <trip depart="3.0" departLane="best" departSpeed="max" from="-10363555" id="rs_c000_i000_28" to="-10363546"/>
 <trip depart="3.0" departLane="best" departSpeed="max" from="5079389" id="rs_c001_i000_5" to="230548917#0"/>
 <trip depart="4.0" departLane="best" departSpeed="max" from="191199323" id="rs_c000_i000_42" to="76735936"/>
 <trip depart="4.0" departLane="best" departSpeed="max" from="-38807023" id="rs_c000_i000_48" to="-210457775#1"/>
 <trip depart="4.0" departLane="best" departSpeed="max" from="-26037066" id="rs_c000_i000_49" to="-118155453"/>
 <trip depart="4.0" departLane="best" departSpeed="max" from="-333156359#0" id="rs_c000_i000_50" to="-156117460"/>
 <trip depart="5.0" departLane="best" departSpeed="max" from="209234444" id="rs_c001_i000_9" to="4952778#0"/>
 <trip depart="5.0" departLane="best" departSpeed="max" from="188997019" id="rs_c001_i001_2" to="-82198456"/>
 <trip depart="5.0" departLane="best" departSpeed="max" from="-48215535#0" id="rs_c000_i001_5" to="-234955764"/>
 <trip depart="5.0" departLane="best" departSpeed="max" from="-125351162#1" id="rs_c000_i001_6" to="-24423403#9"/>
 <trip depart="5.0" departLane="best" departSpeed="max" from="115915280#1" id="rs_c000_i000_51_part0" to="-115915280#1"/>
 <trip depart="5.0" departLane="best" departSpeed="max" from="-126709272#1" id="rs_c000_i000_57" to="126709272#1"/>
 <trip depart="5.0" departLane="best" departSpeed="max" from="116049443#1" id="rs_c000_i000_59" to="-116049443#1"/>
 <trip depart="5.0" departLane="best" departSpeed="max" from="-72151001" id="rs_c000_i000_61" to="-126301860#1"/>
 <trip depart="5.0" departLane="best" departSpeed="max" from="-30383562#2" id="rs_c000_i000_64" to="-30383562#0"/>
 <trip depart="6.0" departLane="best" departSpeed="max" from="-8597242#1" id="rs_c000_i000_66" to="-367319945#0"/>
 <trip depart="6.0" departLane="best" departSpeed="max" from="96596615#1" id="rs_c000_i000_72" to="97117877"/>
 <trip depart="6.0" departLane="best" departSpeed="max" from="-37296677" id="rs_c000_i000_73" to="-223964782#0"/>
 <trip depart="7.0" departLane="best" departSpeed="max" from="5231759" id="rs_c000_i000_81" to="26368085"/>
 <trip depart="7.0" departLane="best" departSpeed="max" from="-17108741" id="rs_c000_i000_90_part0" to="30257948"/>
 <trip depart="7.0" departLane="best" departSpeed="max" from="-348125904" id="rs_c001_i000_11_part0" to="-1068887496"/>
 <trip depart="8.0" departLane="best" departSpeed="max" from="-125351135" id="rs_c001_i000_12" to="-95937728#3"/>
 <trip depart="8.0" departLane="best" departSpeed="max" from="-22957237" id="rs_c000_i000_104" to="845079468#0"/>
 <trip depart="8.0" departLane="best" departSpeed="max" from="-52673136" id="rs_c000_i000_105" to="-61367454#0"/>
 <trip depart="8.0" departLane="best" departSpeed="max" from="-30383562#0" id="rs_c000_i000_106" to="-9639075"/>
 <trip depart="8.0" departLane="best" departSpeed="max" from="-8730073" id="rs_c000_i000_94" to="-235013693#5"/>
 <trip depart="8.0" departLane="best" departSpeed="max" from="260427037#2" id="rs_c000_i000_95" to="-83827692#0"/>
 <trip depart="8.0" departLane="best" departSpeed="max" from="-62116257" id="rs_c000_i000_98" to="-75554984"/>
 <trip depart="9.0" departLane="best" departSpeed="max" from="-169310108#2" id="rs_c000_i000_53" to="-169310108#0"/>
 <trip depart="10.0" departLane="best" departSpeed="max" from="-30016028#1" id="rs_c000_i000_122" to="-125351142#7"/>
 <trip depart="10.0" departLane="best" departSpeed="max" from="-10420635#1" id="rs_c000_i001_10" to="53277461#3"/>
 <trip depart="11.0" departLane="best" departSpeed="max" from="-709347809" id="rs_c000_i001_11" to="-125351177#2"/>
 <trip depart="12.0" departLane="best" departSpeed="max" from="-217548735" id="rs_c000_i000_137" to="-372445340#0"/>
 <trip depart="12.0" departLane="best" departSpeed="max" from="5067770#1" id="rs_c000_i000_138" to="-235378181"/>
 <trip depart="12.0" departLane="best" departSpeed="max" from="-95937943#3" id="rs_c000_i000_139" to="-301079495#0"/>
 <trip depart="12.0" departLane="best" departSpeed="max" from="-100073149" id="rs_c000_i002_1" to="232003927#1"/>
 <trip depart="13.0" departLane="best" departSpeed="max" from="-117654815#1" id="rs_c000_i000_148" to="-26295654#3"/>
 <trip depart="14.0" departLane="best" departSpeed="max" from="257036220#1" id="rs_c001_i000_21" to="30605348#0"/>
 <trip depart="14.0" departLane="best" departSpeed="max" from="222307221#0" id="rs_c000_i000_151" to="222307221#1"/>
 <trip depart="14.0" departLane="best" departSpeed="max" from="360065223" id="rs_c000_i000_154" to="33927935"/>
 <trip depart="14.0" departLane="best" departSpeed="max" from="125828734" id="rs_c000_i001_15" to="340206715"/>
 <trip depart="15.0" departLane="best" departSpeed="max" from="-9640576" id="rs_c000_i000_160" to="-156117444"/>
 <trip depart="15.0" departLane="best" departSpeed="max" from="-24466641" id="rs_c000_i000_161" to="24466652#2"/>
 <trip depart="16.0" departLane="best" departSpeed="max" from="-4233519" id="rs_c001_i000_25" to="-4216414#0"/>
 <trip depart="16.0" departLane="best" departSpeed="max" from="-607687261#1" id="rs_c000_i000_186" to="-607687261#0"/>
 <trip depart="16.0" departLane="best" departSpeed="max" from="353000468#8" id="rs_c000_i001_19" to="5042043"/>
 <trip depart="16.0" departLane="best" departSpeed="max" from="4233684" id="rs_c000_i001_20" to="183236316"/>
 <trip depart="16.0" departLane="best" departSpeed="max" from="36878390#4" id="rs_c000_i001_21" to="-37102272#0"/>
 <trip depart="17.0" departLane="best" departSpeed="max" from="-167581246" id="rs_c001_i000_28" to="-190641169"/>
 <trip depart="17.0" departLane="best" departSpeed="max" from="-60952082#0" id="rs_c000_i000_189" to="-243932151#0"/>
 <trip depart="17.0" departLane="best" departSpeed="max" from="-137996247" id="rs_c000_i000_194" to="-4353778#2"/>
 <trip depart="17.0" departLane="best" departSpeed="max" from="-71284395" id="rs_c000_i000_195" to="-295993399"/>
 <trip depart="17.0" departLane="best" departSpeed="max" from="-212690606" id="rs_c000_i000_197" to="-10508541"/>
 <trip depart="17.0" departLane="best" departSpeed="max" from="60949087" id="rs_c000_i000_199" to="-5074060"/>
 <trip depart="17.0" departLane="best" departSpeed="max" from="35722785#1" id="rs_c000_i000_202" to="34733209"/>
 <trip depart="18.0" departLane="best" departSpeed="max" from="-63134322#1" id="rs_c001_i000_31" to="-51722317"/>
 <trip depart="18.0" departLane="best" departSpeed="max" from="-772686078#0" id="rs_c000_i000_207" to="-142035169#2"/>
 <trip depart="18.0" departLane="best" departSpeed="max" from="26959985" id="rs_c000_i000_209" to="362993459"/>
 <trip depart="18.0" departLane="best" departSpeed="max" from="-324466727" id="rs_c000_i000_213" to="-265764200"/>
 <trip depart="18.0" departLane="best" departSpeed="max" from="-76177237" id="rs_c000_i000_219" to="-76177239"/>
 <trip depart="18.0" departLane="best" departSpeed="max" from="161735525#0" id="rs_c000_i000_220" to="161735523"/>
 <trip depart="18.0" departLane="best" departSpeed="max" from="20358582#0" id="rs_c000_i000_221" to="141972838#1"/>
 <trip depart="19.0" departLane="best" departSpeed="max" from="177401371#1" id="rs_c000_i001_24" to="-177401370#0"/>
 <trip depart="19.0" departLane="best" departSpeed="max" from="10516147#0" id="rs_c000_i000_224" to="10516236"/>
 <trip depart="19.0" departLane="best" departSpeed="max" from="-94107509" id="rs_c000_i000_228" to="-96597366#0"/>
 <trip depart="19.0" departLane="best" departSpeed="max" from="77606148#1" id="rs_c000_i000_231" to="14579253"/>
 <trip depart="20.0" departLane="best" departSpeed="max" from="307014052#1" id="rs_c000_i000_232" to="307014052#2"/>
 <trip depart="20.0" departLane="best" departSpeed="max" from="30528572#0" id="rs_c000_i000_236" to="30528572#1"/>
 <trip depart="20.0" departLane="best" departSpeed="max" from="-5987949#0" id="rs_c000_i000_240" to="-30618503#0"/>
 <trip depart="20.0" departLane="best" departSpeed="max" from="-61367432" id="rs_c000_i000_245" to="-61281861"/>
 <trip depart="21.0" departLane="best" departSpeed="max" from="-10426053#1" id="rs_c001_i000_35" to="10426000"/>
 <trip depart="21.0" departLane="best" departSpeed="max" from="-10561827" id="rs_c000_i000_246" to="-235013693#2"/>
 <trip depart="21.0" departLane="best" departSpeed="max" from="80323717#1" id="rs_c000_i000_247" to="331558619#1"/>
 <trip depart="21.0" departLane="best" departSpeed="max" from="157703265#0" id="rs_c000_i000_249" to="157703265#1"/>
 <trip depart="21.0" departLane="best" departSpeed="max" from="125143975" id="rs_c000_i000_253" to="-125351142#4"/>
 <trip depart="21.0" departLane="best" departSpeed="max" from="42676340#2" id="rs_c000_i000_259" to="307653254"/>
 <trip depart="22.0" departLane="best" departSpeed="max" from="-45578880" id="rs_c000_i000_260" to="-4341507#0"/>
 <trip depart="22.0" departLane="best" departSpeed="max" from="285137507" id="rs_c000_i000_262" to="-285137499"/>
 <trip depart="23.0" departLane="best" departSpeed="max" from="-122529098#1" id="rs_c000_i000_277" to="4353778#0"/>
 <trip depart="24.0" departLane="best" departSpeed="max" from="219528064" id="rs_c001_i001_7" to="126449221#0"/>
 <trip depart="24.0" departLane="best" departSpeed="max" from="-101372216" id="rs_c001_i000_40" to="101376874#1"/>
 <trip depart="24.0" departLane="best" departSpeed="max" from="-117643614#1" id="rs_c000_i001_32" to="-117643614#0"/>
 <trip depart="24.0" departLane="best" departSpeed="max" from="-37864054" id="rs_c000_i000_293" to="-125589739#0"/>
 <trip depart="25.0" departLane="best" departSpeed="max" from="-211040112#2" id="rs_c000_i002_4" to="-211040112#1"/>
 <trip depart="25.0" departLane="best" departSpeed="max" from="55364853" id="rs_c000_i000_294" to="222885381"/>
 <trip depart="25.0" departLane="best" departSpeed="max" from="-367319945#0" id="rs_c000_i000_295" to="151911876"/>
 <trip depart="25.0" departLane="best" departSpeed="max" from="-122529110" id="rs_c000_i000_296" to="169313833#1"/>
 <trip depart="25.0" departLane="best" departSpeed="max" from="-125351135" id="rs_c000_i000_299" to="-95937728#3"/>
 <trip depart="25.0" departLane="best" departSpeed="max" from="56253839" id="rs_c000_i000_303" to="30098518"/>
 <trip depart="26.0" departLane="best" departSpeed="max" from="43263108" id="rs_c001_i000_42" to="-61367459"/>
 <trip depart="26.0" departLane="best" departSpeed="max" from="-116645514#0" id="rs_c000_i000_305" to="-116645516"/>
 <trip depart="26.0" departLane="best" departSpeed="max" from="4565194" id="rs_c000_i000_309" to="-18467158"/>
 <trip depart="26.0" departLane="best" departSpeed="max" from="195552850" id="rs_c000_i000_311" to="58125335#3"/>
 <trip depart="27.0" departLane="best" departSpeed="max" from="-74011129#0" id="rs_c000_i001_35" to="-63322106#0"/>
 <trip depart="28.0" departLane="best" departSpeed="max" from="96202732" id="rs_c001_i000_46" to="191201120"/>
 <trip depart="28.0" departLane="best" departSpeed="max" from="78060839#0" id="rs_c001_i000_47" to="368532474#3"/>
 <trip depart="28.0" departLane="best" departSpeed="max" from="115915280#1" id="rs_c000_i001_36" to="14438397"/>
 <trip depart="28.0" departLane="best" departSpeed="max" from="530282928#1" id="rs_c000_i000_323" to="266162455"/>
 <trip depart="28.0" departLane="best" departSpeed="max" from="-122590749" id="rs_c000_i000_324" to="-122590748"/>
 <trip depart="28.0" departLane="best" departSpeed="max" from="235008345" id="rs_c000_i000_327" to="-158766052"/>
 <trip depart="28.0" departLane="best" departSpeed="max" from="125351134#1" id="rs_c000_i000_329" to="125351114"/>
 <trip depart="29.0" departLane="best" departSpeed="max" from="-44149187" id="rs_c000_i000_326" to="993027490"/>
 <trip depart="29.0" departLane="best" departSpeed="max" from="4246321" id="rs_c001_i000_49" to="-4246322#0"/>
 <trip depart="29.0" departLane="best" departSpeed="max" from="-16868678#1" id="rs_c000_i001_38" to="28549743"/>
 <trip depart="29.0" departLane="best" departSpeed="max" from="115798764" id="rs_c000_i000_336" to="658564561"/>
 <trip depart="30.0" departLane="best" departSpeed="max" from="-324547492" id="rs_c001_i000_51" to="-316340789"/>
 <trip depart="30.0" departLane="best" departSpeed="max" from="-24423625#2" id="rs_c000_i000_347" to="24423625#2"/>
 <trip depart="30.0" departLane="best" departSpeed="max" from="-4685994#1" id="rs_c000_i000_349" to="38330323#1"/>
 <trip depart="31.0" departLane="best" departSpeed="max" from="-285876419#0" id="rs_c000_i000_358" to="184015984"/>
 <trip depart="31.0" departLane="best" departSpeed="max" from="-221166766#0" id="rs_c000_i000_362_part0" to="-108323051"/>
 <trip depart="31.0" departLane="best" departSpeed="max" from="34151614" id="rs_c000_i000_364" to="125351320#2"/>
 <trip depart="32.0" departLane="best" departSpeed="max" from="82524563#1" id="rs_c000_i000_369" to="71321189#0"/>
 <trip depart="32.0" departLane="best" departSpeed="max" from="-100018570#0" id="rs_c000_i000_374" to="-100018560"/>
 <trip depart="32.0" departLane="best" departSpeed="max" from="-129785060" id="rs_c000_i000_376" to="-350148486"/>
 <trip depart="33.0" departLane="best" departSpeed="max" from="-285133710" id="rs_c001_i000_57" to="285133712"/>
 <trip depart="33.0" departLane="best" departSpeed="max" from="-332253063#0" id="rs_c001_i000_59" to="-10426057"/>
 <trip depart="33.0" departLane="best" departSpeed="max" from="61270707" id="rs_c001_i000_60" to="260898349"/>
 <trip depart="33.0" departLane="best" departSpeed="max" from="-32757187" id="rs_c001_i000_61" to="-75516488#0"/>
 <trip depart="33.0" departLane="best" departSpeed="max" from="24469322#0" id="rs_c000_i001_44" to="-195552854"/>
 <trip depart="33.0" departLane="best" departSpeed="max" from="-76177239" id="rs_c000_i000_377" to="74059118#1"/>
 <trip depart="33.0" departLane="best" departSpeed="max" from="-139241837" id="rs_c000_i000_378" to="106089939#1"/>
 <trip depart="33.0" departLane="best" departSpeed="max" from="-369150317#0" id="rs_c000_i000_381" to="-132047178"/>
 <trip depart="33.0" departLane="best" departSpeed="max" from="-142035169#5" id="rs_c000_i000_382" to="-142035169#4"/>
 <trip depart="33.0" departLane="best" departSpeed="max" from="290255300" id="rs_c000_i000_384" to="136721679#2"/>
 <trip depart="34.0" departLane="best" departSpeed="max" from="309477782#0" id="rs_c001_i000_64" to="343437497#2"/>
 <trip depart="34.0" departLane="best" departSpeed="max" from="-8135855" id="rs_c001_i000_67" to="-30471449"/>
 <trip depart="34.0" departLane="best" departSpeed="max" from="1080298604" id="rs_c001_i000_68" to="26369517"/>
 <trip depart="34.0" departLane="best" departSpeed="max" from="-5042317#2" id="rs_c000_i001_47" to="37832304"/>
 <trip depart="34.0" departLane="best" departSpeed="max" from="-61186334" id="rs_c000_i000_396" to="-61233439"/>
 <trip depart="34.0" departLane="best" departSpeed="max" from="222389339" id="rs_c000_i000_397_part0" to="-892203443"/>
 <trip depart="34.0" departLane="best" departSpeed="max" from="-546942445" id="rs_c000_i000_399" to="546942446#1"/>
 <trip depart="35.0" departLane="best" departSpeed="max" from="-35155912" id="rs_c001_i000_69" to="338862108#2"/>
 <trip depart="35.0" departLane="best" departSpeed="max" from="108200486" id="rs_c001_i000_71" to="40009015"/>
 <trip depart="35.0" departLane="best" departSpeed="max" from="-4263848" id="rs_c000_i000_402_part0" to="-178132932"/>
 <trip depart="35.0" departLane="best" departSpeed="max" from="35605874#2" id="rs_c000_i000_411" to="35605874#3"/>
 <trip depart="35.0" departLane="best" departSpeed="max" from="112451183" id="rs_c000_i000_412" to="132022884"/>
 <trip depart="35.0" departLane="best" departSpeed="max" from="-27121494" id="rs_c000_i000_413" to="-125483771"/>
 <trip depart="36.0" departLane="best" departSpeed="max" from="-125590811#0" id="rs_c000_i000_393" to="180976534#1"/>
 <trip depart="36.0" departLane="best" departSpeed="max" from="-1022514468" id="rs_c001_i000_73" to="-568356675"/>
 <trip depart="36.0" departLane="best" departSpeed="max" from="60949087" id="rs_c000_i000_415" to="-5074060"/>
 <trip depart="36.0" departLane="best" departSpeed="max" from="-39162601" id="rs_c000_i000_416" to="46606594#1"/>
 <trip depart="36.0" departLane="best" departSpeed="max" from="117093565" id="rs_c000_i000_420" to="4996803"/>
 <trip depart="36.0" departLane="best" departSpeed="max" from="-125351177#1" id="rs_c000_i000_424" to="-125351177#0"/>
 <trip depart="37.0" departLane="best" departSpeed="max" from="-4238018#0" id="rs_c001_i000_78" to="-192596483"/>
 <trip depart="37.0" departLane="best" departSpeed="max" from="4238028#0" id="rs_c001_i000_79" to="4238027"/>
 <trip depart="37.0" departLane="best" departSpeed="max" from="-5038086#1" id="rs_c000_i000_430" to="-5038086#0"/>
 <trip depart="38.0" departLane="best" departSpeed="max" from="-4650197#0" id="rs_c000_i000_373" to="-4646544#5"/>
 <trip depart="38.0" departLane="best" departSpeed="max" from="-5067354#1" id="rs_c000_i000_437" to="-5067354#0"/>
 <trip depart="38.0" departLane="best" departSpeed="max" from="-178132932" id="rs_c000_i000_439" to="-116712800#0"/>
 <trip depart="38.0" departLane="best" departSpeed="max" from="-10426053#1" id="rs_c000_i000_444" to="10426000"/>
 <trip depart="39.0" departLane="best" departSpeed="max" from="-75732915" id="rs_c001_i000_81" to="42557003"/>
 <trip depart="39.0" departLane="best" departSpeed="max" from="-636388801#1" id="rs_c000_i001_54" to="-636388801#0"/>
 <trip depart="39.0" departLane="best" departSpeed="max" from="4691940" id="rs_c000_i001_55" to="-79642850#5"/>
 <trip depart="40.0" departLane="best" departSpeed="max" from="139217740" id="rs_c001_i000_83" to="-75718524"/>
 <trip depart="40.0" departLane="best" departSpeed="max" from="-84639229#0" id="rs_c000_i000_455_part0" to="83163106"/>
 <trip depart="40.0" departLane="best" departSpeed="max" from="-125143988#1" id="rs_c000_i000_460" to="125143985#0"/>
 <trip depart="41.0" departLane="best" departSpeed="max" from="155832398#1" id="rs_c000_i000_198" to="155832398#2"/>
 <trip depart="41.0" departLane="best" departSpeed="max" from="4229427#1" id="rs_c001_i000_84" to="4229427#2"/>
 <trip depart="41.0" departLane="best" departSpeed="max" from="358438894" id="rs_c000_i000_469" to="179752645"/>
 <trip depart="41.0" departLane="best" departSpeed="max" from="147628763#1" id="rs_c000_i000_473" to="147630425#2"/>
 <trip depart="41.0" departLane="best" departSpeed="max" from="10557712" id="rs_c000_i000_475" to="-26367999"/>
 <trip depart="41.0" departLane="best" departSpeed="max" from="-579053759" id="rs_c000_i000_476" to="-40109005#0"/>
 <trip depart="42.0" departLane="best" departSpeed="max" from="-72728809" id="rs_c001_i000_87" to="27246253"/>
 <trip depart="42.0" departLane="best" departSpeed="max" from="-5041965#0" id="rs_c000_i001_57" to="-52021728"/>
 <trip depart="42.0" departLane="best" departSpeed="max" from="-6522799" id="rs_c000_i000_482" to="-4952783#0"/>
 <trip depart="43.0" departLane="best" departSpeed="max" from="-122529102#1" id="rs_c001_i002_1" to="122529102#1"/>
 <trip depart="43.0" departLane="best" departSpeed="max" from="33927935" id="rs_c001_i000_89_part0" to="8137427"/>
 <trip depart="43.0" departLane="best" departSpeed="max" from="-10426204#1" id="rs_c001_i000_90_part0" to="-10426204#0"/>
 <trip depart="43.0" departLane="best" departSpeed="max" from="27162003" id="rs_c001_i000_91" to="-219758366"/>
 <trip depart="43.0" departLane="best" departSpeed="max" from="5137912" id="rs_c000_i002_6" to="-75656307#0"/>
 <trip depart="43.0" departLane="best" departSpeed="max" from="-42918953" id="rs_c000_i000_486" to="-75392953"/>
 <trip depart="43.0" departLane="best" departSpeed="max" from="-95212556" id="rs_c000_i000_487" to="-96809695#2"/>
 <trip depart="43.0" departLane="best" departSpeed="max" from="-124536769" id="rs_c000_i000_490" to="6929234#0"/>
 <trip depart="43.0" departLane="best" departSpeed="max" from="-4261808" id="rs_c000_i000_491" to="-22958692#0"/>
 <trip depart="43.0" departLane="best" departSpeed="max" from="-138517983" id="rs_c000_i000_494" to="73013402"/>
 <trip depart="44.0" departLane="best" departSpeed="max" from="-74048904" id="rs_c001_i001_10" to="-258888264"/>
 <trip depart="44.0" departLane="best" departSpeed="max" from="-4952783#2" id="rs_c001_i001_11" to="-4952783#1"/>
 <trip depart="44.0" departLane="best" departSpeed="max" from="-76177239" id="rs_c001_i000_86" to="74059118#1"/>
 <trip depart="45.0" departLane="best" departSpeed="max" from="145737637#0" id="rs_c001_i000_97" to="145737637#1"/>
 <trip depart="45.0" departLane="best" departSpeed="max" from="-4650196" id="rs_c001_i000_98_part0" to="-4646544#0"/>
 <trip depart="45.0" departLane="best" departSpeed="max" from="-116049444#0" id="rs_c000_i000_504" to="-212694593#3"/>
 <trip depart="45.0" departLane="best" departSpeed="max" from="-24423403#10" id="rs_c000_i000_508" to="-125351162#0"/>
 <trip depart="45.0" departLane="best" departSpeed="max" from="-4644472" id="rs_c000_i000_510" to="-183347516#0"/>
 <trip depart="46.0" departLane="best" departSpeed="max" from="4439880#1" id="rs_c000_i000_513" to="4439884"/>
 <trip depart="46.0" departLane="best" departSpeed="max" from="74322492#1" id="rs_c001_i000_101" to="74322499#1"/>
 <trip depart="46.0" departLane="best" departSpeed="max" from="266188545" id="rs_c000_i000_521" to="266161715#1"/>
 <trip depart="46.0" departLane="best" departSpeed="max" from="-4872847" id="rs_c000_i000_522" to="-79642850#4"/>
 <trip depart="46.0" departLane="best" departSpeed="max" from="-220368971#2" id="rs_c000_i000_526" to="-220368971#1"/>
 <trip depart="47.0" departLane="best" departSpeed="max" from="-122529096#6" id="rs_c000_i000_529" to="-122529096#5"/>
 <trip depart="47.0" departLane="best" departSpeed="max" from="125351134#0" id="rs_c000_i000_532" to="-95937941#0"/>
 <trip depart="47.0" departLane="best" departSpeed="max" from="-136721671" id="rs_c000_i000_533" to="-132047178"/>
 <trip depart="47.0" departLane="best" departSpeed="max" from="703967713" id="rs_c001_i000_103" to="4233684"/>
 <trip depart="47.0" departLane="best" departSpeed="max" from="-10560982" id="rs_c000_i001_63" to="109380700#2"/>
 <trip depart="48.0" departLane="best" departSpeed="max" from="257036220#1" id="rs_c000_i000_539_part0" to="30605348#0"/>
 <trip depart="48.0" departLane="best" departSpeed="max" from="-116049439#1" id="rs_c001_i000_104" to="-929213813"/>
 <trip depart="48.0" departLane="best" departSpeed="max" from="122590744" id="rs_c000_i000_549" to="73698037#1"/>
 <trip depart="48.0" departLane="best" departSpeed="max" from="-125351142#6" id="rs_c000_i000_551" to="-125351142#4"/>
 <trip depart="48.0" departLane="best" departSpeed="max" from="-84667269" id="rs_c000_i000_552" to="-84667272"/>
 <trip depart="48.0" departLane="best" departSpeed="max" from="-4261925" id="rs_c001_i000_106_part0" to="115798790"/>
 <trip depart="48.84" departLane="best" departSpeed="max" from="58265961" id="rs_c000_i000_84_part1" to="-285456482#5"/>
 <trip depart="49.0" departLane="best" departSpeed="max" from="46822388" id="rs_c000_i000_553" to="35062223#6"/>
 <trip depart="49.0" departLane="best" departSpeed="max" from="-286243203#1" id="rs_c000_i000_554" to="-286243203#0"/>
 <trip depart="49.0" departLane="best" departSpeed="max" from="125351114" id="rs_c000_i000_555" to="-25615043#0"/>
 <trip depart="49.0" departLane="best" departSpeed="max" from="20359648#3" id="rs_c000_i000_556" to="20359648#4"/>
 <trip depart="49.0" departLane="best" departSpeed="max" from="141783126#0" id="rs_c000_i000_564" to="141783126#1"/>
 <trip depart="50.0" departLane="best" departSpeed="max" from="10560992#0" id="rs_c000_i000_571" to="-359509040#1"/>
 <trip depart="50.0" departLane="best" departSpeed="max" from="-192597454" id="rs_c001_i000_107" to="-364021792"/>
 <trip depart="51.0" departLane="best" departSpeed="max" from="695626572" id="rs_c000_i000_578" to="24426767#0"/>
 <trip depart="51.0" departLane="best" departSpeed="max" from="-137353431" id="rs_c000_i000_580" to="22999027#0"/>
 <trip depart="51.0" departLane="best" departSpeed="max" from="-61997814#0" id="rs_c000_i000_584" to="-233171094#0"/>
 <trip depart="51.0" departLane="best" departSpeed="max" from="82284036#1" id="rs_c000_i000_586" to="674068354"/>
 <trip depart="52.0" departLane="best" departSpeed="max" from="-212706393" id="rs_c000_i000_589" to="161182980#0"/>
 <trip depart="52.0" departLane="best" departSpeed="max" from="-4685774#0" id="rs_c000_i000_591" to="4685781#0"/>
 <trip depart="52.0" departLane="best" departSpeed="max" from="-75732865" id="rs_c000_i000_593" to="-63540897"/>
 <trip depart="52.0" departLane="best" departSpeed="max" from="-30383562#2" id="rs_c000_i000_596" to="-30383562#0"/>
 <trip depart="52.0" departLane="best" departSpeed="max" from="-118869284#1" id="rs_c000_i000_598" to="122529094#4"/>
 <trip depart="52.0" departLane="best" departSpeed="max" from="4700930#0" id="rs_c000_i000_603" to="-4700936"/>
 <trip depart="52.0" departLane="best" departSpeed="max" from="4229437" id="rs_c000_i000_605" to="98882767"/>
 <trip depart="52.0" departLane="best" departSpeed="max" from="138630786" id="rs_c001_i000_113" to="-25542565#1"/>
 <trip depart="53.0" departLane="best" departSpeed="max" from="-116049443#1" id="rs_c000_i001_71" to="-212694593#2"/>
 <trip depart="53.0" departLane="best" departSpeed="max" from="-4650177#0" id="rs_c000_i000_609" to="4646502#0"/>
 <trip depart="53.0" departLane="best" departSpeed="max" from="-188890214" id="rs_c000_i000_610" to="39297416"/>
 <trip depart="53.0" departLane="best" departSpeed="max" from="184015984" id="rs_c000_i000_611_part0" to="-116767653"/>
 <trip depart="53.0" departLane="best" departSpeed="max" from="30326559" id="rs_c000_i000_612" to="30326560"/>
 <trip depart="53.0" departLane="best" departSpeed="max" from="46122296" id="rs_c000_i000_617" to="-219760677#0"/>
 <trip depart="54.0" departLane="best" departSpeed="max" from="307014052#3" id="rs_c000_i001_72" to="307014052#4"/>
 <trip depart="54.0" departLane="best" departSpeed="max" from="-179967083#0" id="rs_c000_i001_75" to="-530282928#0"/>
 <trip depart="54.0" departLane="best" departSpeed="max" from="122529104#4" id="rs_c000_i000_635" to="-95937728#1"/>
 <trip depart="54.0" departLane="best" departSpeed="max" from="37336528" id="rs_c000_i000_639" to="139219223#0"/>
 <trip depart="54.0" departLane="best" departSpeed="max" from="4631284" id="rs_c001_i000_117" to="71322357#0"/>
 <trip depart="55.0" departLane="best" departSpeed="max" from="20358582#0" id="rs_c000_i000_646_part0" to="141972838#1"/>
 <trip depart="55.0" departLane="best" departSpeed="max" from="-61566225#0" id="rs_c000_i000_653" to="-61279838#0"/>
 <trip depart="56.0" departLane="best" departSpeed="max" from="-221166765" id="rs_c000_i000_359_part0" to="-4702162"/>
 <trip depart="56.0" departLane="best" departSpeed="max" from="-83813129#0" id="rs_c000_i001_78" to="-74048887"/>
 <trip depart="56.0" departLane="best" departSpeed="max" from="-4685938" id="rs_c000_i002_8" to="-158882487#0"/>
 <trip depart="56.0" departLane="best" departSpeed="max" from="4273624" id="rs_c000_i000_657" to="4273623"/>
 <trip depart="56.0" departLane="best" departSpeed="max" from="285875329#0" id="rs_c000_i000_659" to="285875329#1"/>
 <trip depart="56.0" departLane="best" departSpeed="max" from="190721768#1" id="rs_c000_i000_665" to="-445997357#0"/>
 <trip depart="56.0" departLane="best" departSpeed="max" from="-83813131" id="rs_c001_i000_119" to="61412727"/>
 <trip depart="56.0" departLane="best" departSpeed="max" from="160632153#0" id="rs_c001_i000_121" to="160632153#1"/>
 <trip depart="56.0" departLane="best" departSpeed="max" from="188956290" id="rs_c001_i000_122" to="97117877"/>
 <trip depart="57.0" departLane="best" departSpeed="max" from="26369517" id="rs_c000_i001_73" to="704809565#0"/>
 <trip depart="57.0" departLane="best" departSpeed="max" from="61496433" id="rs_c000_i001_79" to="-61543316#0"/>
 <trip depart="57.0" departLane="best" departSpeed="max" from="-290255303#2" id="rs_c000_i001_81" to="-26165752#0"/>
 <trip depart="57.0" departLane="best" departSpeed="max" from="-46596869" id="rs_c000_i000_666" to="-46596597#0"/>
 <trip depart="57.0" departLane="best" departSpeed="max" from="209237468" id="rs_c000_i000_672" to="209234444"/>
 <trip depart="57.0" departLane="best" departSpeed="max" from="462046218" id="rs_c000_i000_673" to="-30141086#0"/>
 <trip depart="57.0" departLane="best" departSpeed="max" from="-265764200" id="rs_c000_i000_675" to="-34142408"/>
 <trip depart="57.0" departLane="best" departSpeed="max" from="33927934" id="rs_c000_i000_677_part0" to="538979536#3"/>