<?xml version="1.0" encoding="utf-8"?>
<routes>
 <trip depart="1.0" departLane="best" departSpeed="max" from="-30140997" id="rs_c000_i000_9_part0" to="-352568703"/>
 <trip depart="1.0" departLane="best" departSpeed="max" from="-285208604" id="rs_c000_i000_11" to="285208605"/>
 <trip depart="2.0" departLane="best" departSpeed="max" from="-5235996#0" id="rs_c001_i000_2" to="124538316"/>
 <trip depart="3.0" departLane="best" departSpeed="max" from="5079389" id="rs_c001_i000_5" to="230548917#0"/>
 <trip depart="7.0" departLane="best" departSpeed="max" from="5231759" id="rs_c000_i000_81" to="26368085"/>
 <trip depart="8.0" departLane="best" departSpeed="max" from="-30383562#0" id="rs_c000_i000_106" to="-9639075"/>
 <trip depart="8.0" departLane="best" departSpeed="max" from="-62116257" id="rs_c000_i000_98" to="-75554984"/>
 <trip depart="12.0" departLane="best" departSpeed="max" from="-100073149" id="rs_c000_i002_1" to="232003927#1"/>
 <trip depart="14.0" departLane="best" departSpeed="max" from="222307221#0" id="rs_c000_i000_151" to="222307221#1"/>
 <trip depart="16.0" departLane="best" departSpeed="max" from="353000468#8" id="rs_c000_i001_19" to="5042043"/>
 <trip depart="17.0" departLane="best" departSpeed="max" from="-71284395" id="rs_c000_i000_195" to="-295993399"/>
 <trip depart="18.0" departLane="best" departSpeed="max" from="-324466727" id="rs_c000_i000_213" to="-265764200"/>
 <trip depart="18.0" departLane="best" departSpeed="max" from="20358582#0" id="rs_c000_i000_221" to="141972838#1"/>
 <trip depart="19.0" departLane="best" departSpeed="max" from="177401371#1" id="rs_c000_i001_24" to="-177401370#0"/>
 <trip depart="19.0" departLane="best" departSpeed="max" from="77606148#1" id="rs_c000_i000_231" to="14579253"/>
 <trip depart="20.0" departLane="best" departSpeed="max" from="30528572#0" id="rs_c000_i000_236" to="30528572#1"/>
 <trip depart="25.0" departLane="best" departSpeed="max" from="-211040112#2" id="rs_c000_i002_4" to="-211040112#1"/>
 <trip depart="25.0" departLane="best" departSpeed="max" from="55364853" id="rs_c000_i000_294" to="222885381"/>
 <trip depart="25.0" departLane="best" departSpeed="max" from="-367319945#0" id="rs_c000_i000_295" to="151911876"/>
 <trip depart="25.0" departLane="best" departSpeed="max" from="-122529110" id="rs_c000_i000_296" to="169313833#1"/>
 <trip depart="25.0" departLane="best" departSpeed="max" from="-125351135" id="rs_c000_i000_299" to="-95937728#3"/>
 <trip depart="26.0" departLane="best" departSpeed="max" from="-116645514#0" id="rs_c000_i000_305" to="-116645516"/>
 <trip depart="26.0" departLane="best" departSpeed="max" from="4565194" id="rs_c000_i000_309" to="-18467158"/>
 <trip depart="26.0" departLane="best" departSpeed="max" from="195552850" id="rs_c000_i000_311" to="58125335#3"/>
 <trip depart="28.0" departLane="best" departSpeed="max" from="115915280#1" id="rs_c000_i001_36" to="14438397"/>
 <trip depart="28.0" departLane="best" departSpeed="max" from="-122590749" id="rs_c000_i000_324" to="-122590748"/>
 <trip depart="29.0" departLane="best" departSpeed="max" from="-16868678#1" id="rs_c000_i001_38" to="28549743"/>
 <trip depart="33.0" departLane="best" departSpeed="max" from="-332253063#0" id="rs_c001_i000_59" to="-10426057"/>
 <trip depart="34.0" departLane="best" departSpeed="max" from="1080298604" id="rs_c001_i000_68" to="26369517"/>
 <trip depart="34.0" departLane="best" departSpeed="max" from="-546942445" id="rs_c000_i000_399" to="546942446#1"/>
 <trip depart="35.0" departLane="best" departSpeed="max" from="-4263848" id="rs_c000_i000_402_part0" to="-178132932"/>
 <trip depart="35.0" departLane="best" departSpeed="max" from="35605874#2" id="rs_c000_i000_411" to="35605874#3"/>
 <trip depart="35.0" departLane="best" departSpeed="max" from="112451183" id="rs_c000_i000_412" to="132022884"/>
 <trip depart="36.0" departLane="best" departSpeed="max" from="-1022514468" id="rs_c001_i000_73" to="-568356675"/>
 <trip depart="38.0" departLane="best" departSpeed="max" from="-178132932" id="rs_c000_i000_439" to="-116712800#0"/>
 <trip depart="39.0" departLane="best" departSpeed="max" from="-75732915" id="rs_c001_i000_81" to="42557003"/>
 <trip depart="41.0" departLane="best" departSpeed="max" from="155832398#1" id="rs_c000_i000_198" to="155832398#2"/>
 <trip depart="43.0" departLane="best" departSpeed="max" from="-122529102#1" id="rs_c001_i002_1" to="122529102#1"/>
 <trip depart="43.0" departLane="best" departSpeed="max" from="33927935" id="rs_c001_i000_89_part0" to="8137427"/>
 <trip depart="43.0" departLane="best" departSpeed="max" from="-10426204#1" id="rs_c001_i000_90_part0" to="-10426204#0"/>
 <trip depart="43.0" departLane="best" departSpeed="max" from="-42918953" id="rs_c000_i000_486" to="-75392953"/>
 <trip depart="43.0" departLane="best" departSpeed="max" from="-138517983" id="rs_c000_i000_494" to="73013402"/>
 <trip depart="44.0" departLane="best" departSpeed="max" from="-74048904" id="rs_c001_i001_10" to="-258888264"/>
 <trip depart="44.0" departLane="best" departSpeed="max" from="-4952783#2" id="rs_c001_i001_11" to="-4952783#1"/>
 <trip depart="45.0" departLane="best" departSpeed="max" from="-116049444#0" id="rs_c000_i000_504" to="-212694593#3"/>
 <trip depart="45.0" departLane="best" departSpeed="max" from="-4644472" id="rs_c000_i000_510" to="-183347516#0"/>
 <trip depart="48.0" departLane="best" departSpeed="max" from="-116049439#1" id="rs_c001_i000_104" to="-929213813"/>
 <trip depart="51.0" departLane="best" departSpeed="max" from="-137353431" id="rs_c000_i000_580" to="22999027#0"/>
 <trip depart="52.0" departLane="best" departSpeed="max" from="-212706393" id="rs_c000_i000_589" to="161182980#0"/>
 <trip depart="52.0" departLane="best" departSpeed="max" from="-75732865" id="rs_c000_i000_593" to="-63540897"/>
 <trip depart="52.0" departLane="best" departSpeed="max" from="4700930#0" id="rs_c000_i000_603" to="-4700936"/>
 <trip depart="54.0" departLane="best" departSpeed="max" from="307014052#3" id="rs_c000_i001_72" to="307014052#4"/>
 <trip depart="56.0" departLane="best" departSpeed="max" from="-221166765" id="rs_c000_i000_359_part0" to="-4702162"/>
 <trip depart="56.0" departLane="best" departSpeed="max" from="-83813131" id="rs_c001_i000_119" to="61412727"/>
 <trip depart="56.0" departLane="best" departSpeed="max" from="188956290" id="rs_c001_i000_122" to="97117877"/>
 <trip depart="57.0" departLane="best" departSpeed="max" from="209237468" id="rs_c000_i000_672" to="209234444"/>
 <trip depart="57.0" departLane="best" departSpeed="max" from="33927934" id="rs_c000_i000_677_part0" to="538979536#3"/>
 <trip depart="57.0" departLane="best" departSpeed="max" from="24031456#4" id="rs_c000_i000_681" to="24031456#5"/>
 <trip depart="58.0" departLane="best" departSpeed="max" from="15242333" id="rs_c000_i000_691" to="108501685#1"/>
 <trip depart="59.0" departLane="best" departSpeed="max" from="-125351142#7" id="rs_c000_i000_698" to="-125351142#6"/>
 <trip depart="63.0" departLane="best" departSpeed="max" from="-188649169" id="rs_c000_i001_90" to="188649174#1"/>
 <trip depart="65.0" departLane="best" departSpeed="max" from="-44038367#1" id="rs_c000_i000_769" to="-44038367#0"/>
 <trip depart="72.0" departLane="best" departSpeed="max" from="-131119719" id="rs_c001_i001_20_part0" to="-108504383"/>
 <trip depart="73.0" departLane="best" departSpeed="max" from="115915280#0" id="rs_c000_i000_850_part0" to="-241330743"/>
 <trip depart="73.0" departLane="best" departSpeed="max" from="-10405223#0" id="rs_c001_i000_160" to="25894166#2"/>
 <trip depart="74.0" departLane="best" departSpeed="max" from="-95100609" id="rs_c000_i000_864" to="-301145897"/>
 <trip depart="75.0" departLane="best" departSpeed="max" from="-328253309#0" id="rs_c000_i001_110" to="126449315#0"/>
 <trip depart="76.0" departLane="best" departSpeed="max" from="-4650197#0" id="rs_c000_i000_809_part0" to="285456486"/>
 <trip depart="76.0" departLane="best" departSpeed="max" from="26040294#1" id="rs_c000_i000_880" to="26040294#2"/>
 <trip depart="77.0" departLane="best" departSpeed="max" from="-4690376" id="rs_c000_i000_893" to="-287182274#0"/>
 <trip depart="77.0" departLane="best" departSpeed="max" from="22999027#0" id="rs_c000_i002_16" to="22999027#1"/>
 <trip depart="80.0" departLane="best" departSpeed="max" from="-949174593" id="rs_c000_i000_923" to="161182980#0"/>
 <trip depart="84.0" departLane="best" departSpeed="max" from="-442031137#0" id="rs_c000_i000_835" to="-324488712"/>
 <trip depart="84.0" departLane="best" departSpeed="max" from="-23197959" id="rs_c000_i000_966_part0" to="212690608#2"/>
 <trip depart="85.0" departLane="best" departSpeed="max" from="-46596603#0" id="rs_c000_i000_979_part0" to="-7918313#0"/>
 <trip depart="89.0" departLane="best" departSpeed="max" from="-118426253" id="rs_c000_i001_130_part0" to="-116645513"/>
 <trip depart="89.0" departLane="best" departSpeed="max" from="24423403#0" id="rs_c000_i000_1021" to="24423403#1"/>
 <trip depart="90.0" departLane="best" departSpeed="max" from="-58767757#1" id="rs_c001_i000_195" to="58767757#1"/>
 <trip depart="91.0" departLane="best" departSpeed="max" from="-116920214" id="rs_c000_i000_1034" to="-116920219#0"/>
 <trip depart="91.0" departLane="best" departSpeed="max" from="-108505622" id="rs_c000_i000_1042" to="-4261835"/>
 <trip depart="93.0" departLane="best" departSpeed="max" from="4643592" id="rs_c000_i001_133" to="-4643592"/>
 <trip depart="94.0" departLane="best" departSpeed="max" from="-133113824" id="rs_c000_i000_1078" to="-4242689#2"/>
 <trip depart="94.0" departLane="best" departSpeed="max" from="-10561982" id="rs_c001_i000_200" to="10561967#1"/>
 <trip depart="94.0" departLane="best" departSpeed="max" from="73698037#1" id="rs_c001_i000_202" to="75399836#1"/>
 <trip depart="100.0" departLane="best" departSpeed="max" from="84017451#0" id="rs_c000_i000_1143" to="-84016143"/>
 <trip depart="101.0" departLane="best" departSpeed="max" from="-26698200" id="rs_c001_i000_214" to="-4229447#2"/>
 <trip depart="103.0" departLane="best" departSpeed="max" from="238004462" id="rs_c000_i000_1185" to="329836527"/>
 <trip depart="103.0" departLane="best" departSpeed="max" from="642129591" id="rs_c000_i000_1189" to="147633302#1"/>
 <trip depart="103.0" departLane="best" departSpeed="max" from="195720443" id="rs_c001_i000_222_part0" to="-126382099"/>
 <trip depart="104.0" departLane="best" departSpeed="max" from="552021861#0" id="rs_c000_i000_1199" to="352818908#1"/>
 <trip depart="104.0" departLane="best" departSpeed="max" from="353195905" id="rs_c000_i001_152" to="123082711#2"/>
 <trip depart="104.0" departLane="best" departSpeed="max" from="-333035352#0" id="rs_c000_i001_153" to="-10560697#3"/>
 <trip depart="106.0" departLane="best" departSpeed="max" from="-94087966" id="rs_c000_i001_157" to="-30471451"/>
 <trip depart="107.0" departLane="best" departSpeed="max" from="-34777320" id="rs_c000_i000_1213" to="-24399325#0"/>
 <trip depart="107.0" departLane="best" departSpeed="max" from="83163097#1" id="rs_c001_i000_228" to="-313656937"/>
 <trip depart="110.0" departLane="best" departSpeed="max" from="-117099159#3" id="rs_c000_i000_1243" to="-26085515#3"/>
 <trip depart="112.0" departLane="best" departSpeed="max" from="4952735#0" id="rs_c000_i000_1268" to="327225378"/>
 <trip depart="112.0" departLane="best" departSpeed="max" from="4246321" id="rs_c001_i000_233" to="-4246322#0"/>
 <trip depart="113.0" departLane="best" departSpeed="max" from="125689487#3" id="rs_c000_i000_1282" to="25894166#0"/>
 <trip depart="113.0" departLane="best" departSpeed="max" from="-232983431" id="rs_c000_i000_1284" to="-4700934"/>
 <trip depart="114.0" departLane="best" departSpeed="max" from="-108323051" id="rs_c000_i000_1288" to="-28213037"/>
 <trip depart="117.0" departLane="best" departSpeed="max" from="-48447058#0" id="rs_c000_i000_1321_part0" to="-321909577#0"/>
 <trip depart="117.0" departLane="best" departSpeed="max" from="125351134#1" id="rs_c000_i000_1323" to="125351114"/>
 <trip depart="118.0" departLane="best" departSpeed="max" from="-62513944#0" id="rs_c000_i000_1339" to="61102971#1"/>
 <trip depart="119.0" departLane="best" departSpeed="max" from="-46606162" id="rs_c000_i000_1350" to="125591002"/>
 <trip depart="120.0" departLane="best" departSpeed="max" from="37101041#1" id="rs_c000_i000_1357" to="37101039#1"/>
 <trip depart="121.0" departLane="best" departSpeed="max" from="26369585" id="rs_c000_i000_1361" to="1080298604"/>
 <trip depart="121.0" departLane="best" departSpeed="max" from="-125143985#3" id="rs_c000_i000_1362" to="-125351142#2"/>
 <trip depart="121.0" departLane="best" departSpeed="max" from="-965645046" id="rs_c000_i000_1371" to="-6563442#1"/>
 <trip depart="121.0" departLane="best" departSpeed="max" from="-230515583#3" id="rs_c000_i000_1375" to="-230515583#2"/>
 <trip depart="121.0" departLane="best" departSpeed="max" from="5091199" id="rs_c001_i000_246" to="62059875#1"/>
 <trip depart="122.0" departLane="best" departSpeed="max" from="42793238#0" id="rs_c000_i000_1376" to="-98158886#0"/>
 <trip depart="123.0" departLane="best" departSpeed="max" from="-4260589" id="rs_c000_i000_1394" to="-116400267"/>
 <trip depart="123.0" departLane="best" departSpeed="max" from="-5036444#0" id="rs_c001_i000_251" to="-204924353#0"/>
 <trip depart="123.0" departLane="best" departSpeed="max" from="126449231#0" id="rs_c001_i000_252" to="93670633#1"/>
 <trip depart="124.0" departLane="best" departSpeed="max" from="-122529094#5" id="rs_c000_i000_1409" to="-95937728#0"/>
 <trip depart="124.0" departLane="best" departSpeed="max" from="4244655" id="rs_c000_i000_1413" to="644345097"/>
 <trip depart="125.0" departLane="best" departSpeed="max" from="-116049444#0" id="rs_c000_i000_1419" to="212694593#4"/>
 <trip depart="126.0" departLane="best" departSpeed="max" from="-24049140#2" id="rs_c000_i000_1433" to="-24049140#1"/>
 <trip depart="127.0" departLane="best" departSpeed="max" from="-22958409" id="rs_c000_i000_1440" to="-27093114"/>
 <trip depart="127.0" departLane="best" departSpeed="max" from="136864086" id="rs_c000_i000_1442" to="-136864084#0"/>
 <trip depart="128.0" departLane="best" departSpeed="max" from="77889443#3" id="rs_c000_i000_614" to="28740389#1"/>
 <trip depart="128.0" departLane="best" departSpeed="max" from="-118155453" id="rs_c000_i001_193" to="-34776023#0"/>
 <trip depart="129.0" departLane="best" departSpeed="max" from="132855673" id="rs_c000_i000_1467" to="35263268#2"/>
 <trip depart="134.0" departLane="best" departSpeed="max" from="-772937593" id="rs_c000_i000_1502" to="-142035169#0"/>
 <trip depart="136.0" departLane="best" departSpeed="max" from="10559201" id="rs_c000_i001_200" to="-84639212"/>
 <trip depart="137.0" departLane="best" departSpeed="max" from="4227193" id="rs_c000_i000_248" to="133113959#0"/>
 <trip depart="138.0" departLane="best" departSpeed="max" from="-169310108#2" id="rs_c000_i000_1521" to="-169310108#0"/>
 <trip depart="139.0" departLane="best" departSpeed="max" from="703967772" id="rs_c000_i001_206" to="703967773"/>
 <trip depart="140.0" departLane="best" departSpeed="max" from="-35962801#0" id="rs_c000_i000_1578" to="-137353420#2"/>
 <trip depart="141.0" departLane="best" departSpeed="max" from="-642129592#0" id="rs_c000_i000_1589" to="30471050"/>
 <trip depart="143.0" departLane="best" departSpeed="max" from="-169310108#2" id="rs_c000_i000_924" to="-169310108#0"/>
 <trip depart="143.0" departLane="best" departSpeed="max" from="-5074060" id="rs_c000_i000_1613" to="-243932151#0"/>
 <trip depart="143.0" departLane="best" departSpeed="max" from="4492786" id="rs_c000_i000_1621" to="34178666"/>
 <trip depart="144.0" departLane="best" departSpeed="max" from="6268965#0" id="rs_c001_i002_2_part1" to="324478542"/>
 <trip depart="147.0" departLane="best" departSpeed="max" from="57722544" id="rs_c000_i000_1658" to="35822877#0"/>
 <trip depart="150.26" departLane="best" departSpeed="max" from="993027492" id="rs_c000_i000_44" to="45265678#0"/>
 <trip depart="151.0" departLane="best" departSpeed="max" from="249399721" id="rs_c001_i000_309" to="249399723"/>
 <trip depart="152.0" departLane="best" departSpeed="max" from="-24855446#3" id="rs_c000_i000_1731_part0" to="-24855446#2"/>
 <trip depart="156.0" departLane="best" departSpeed="max" from="-28840232#0" id="rs_c000_i000_1756" to="26040355#6"/>
 <trip depart="156.0" departLane="best" departSpeed="max" from="-396449089#1" id="rs_c000_i000_1757" to="396449088#1"/>
 <trip depart="156.0" departLane="best" departSpeed="max" from="160202712" id="rs_c001_i000_319" to="160202711"/>
 <trip depart="156.0" departLane="best" departSpeed="max" from="-78312368" id="rs_c001_i000_320" to="-328813517"/>
 <trip depart="157.0" departLane="best" departSpeed="max" from="-36878390#0" id="rs_c000_i000_1763" to="-37102272#0"/>
 <trip depart="157.0" departLane="best" departSpeed="max" from="-62064347" id="rs_c000_i000_1766" to="-62064083"/>
 <trip depart="159.0" departLane="best" departSpeed="max" from="4227193" id="rs_c000_i000_558" to="133113959#0"/>
 <trip depart="160.0" departLane="best" departSpeed="max" from="-6935800#0" id="rs_c000_i000_1806" to="133114634"/>
 <trip depart="161.0" departLane="best" departSpeed="max" from="-308586583#0" id="rs_c000_i000_1810" to="94124202"/>
 <trip depart="161.0" departLane="best" departSpeed="max" from="364586640#0" id="rs_c000_i000_1814" to="364586640#1"/>
 <trip depart="163.0" departLane="best" departSpeed="max" from="-30261805" id="rs_c000_i000_1835" to="61981598#1"/>
 <trip depart="165.0" departLane="best" departSpeed="max" from="-125590811#0" id="rs_c000_i000_537" to="180976534#1"/>
 <trip depart="165.0" departLane="best" departSpeed="max" from="-108262976" id="rs_c000_i000_1854_part0" to="-131119750"/>
 <trip depart="166.0" departLane="best" departSpeed="max" from="287182274#4" id="rs_c000_i001_253" to="287182274#5"/>
 <trip depart="169.0" departLane="best" departSpeed="max" from="-442031137#0" id="rs_c000_i000_1556" to="-324488712"/>
 <trip depart="171.0" departLane="best" departSpeed="max" from="5234587" id="rs_c000_i001_263" to="154150880#1"/>
 <trip depart="171.0" departLane="best" departSpeed="max" from="462046218" id="rs_c001_i000_340" to="-30141086#0"/>
 <trip depart="177.0" departLane="best" departSpeed="max" from="4691940" id="rs_c000_i000_1969" to="79642850#6"/>
 <trip depart="177.0" departLane="best" departSpeed="max" from="142497097" id="rs_c000_i000_1978" to="312887979"/>
 <trip depart="177.0" departLane="best" departSpeed="max" from="51856551#0" id="rs_c001_i000_348" to="1006265805#3"/>
 <trip depart="178.0" departLane="best" departSpeed="max" from="-77806130" id="rs_c000_i000_1989" to="-71233702"/>
 <trip depart="178.0" departLane="best" departSpeed="max" from="-333156359#0" id="rs_c000_i001_270" to="-156117460"/>
 <trip depart="179.0" departLane="best" departSpeed="max" from="-26468567" id="rs_c000_i000_2002" to="-127605238"/>
 <trip depart="180.0" departLane="best" departSpeed="max" from="-442031137#0" id="rs_c000_i000_1886" to="-324488712"/>
 <trip depart="180.0" departLane="best" departSpeed="max" from="-15881544#1" id="rs_c001_i000_351" to="-15881544#0"/>
 <trip depart="182.0" departLane="best" departSpeed="max" from="-645828410" id="rs_c000_i000_2020" to="-8423752#1"/>
 <trip depart="184.0" departLane="best" departSpeed="max" from="10426113#0" id="rs_c000_i001_279" to="10426113#1"/>
 <trip depart="185.0" departLane="best" departSpeed="max" from="5234587" id="rs_c001_i000_361" to="154150880#1"/>
 <trip depart="187.0" departLane="best" departSpeed="max" from="-108262963#0" id="rs_c000_i000_2072_part0" to="-123544948#0"/>
 <trip depart="187.0" departLane="best" departSpeed="max" from="14571550#1" id="rs_c000_i002_46" to="15242125"/>
 <trip depart="189.0" departLane="best" departSpeed="max" from="-193480087" id="rs_c000_i000_2098" to="349048283#1"/>
 <trip depart="191.0" departLane="best" departSpeed="max" from="131780631#1" id="rs_c000_i000_2117_part0" to="-108443219#0"/>
 <trip depart="195.0" departLane="best" departSpeed="max" from="-156117456" id="rs_c000_i000_2145" to="-636388801#1"/>
 <trip depart="195.0" departLane="best" departSpeed="max" from="-10426011#1" id="rs_c000_i000_2147" to="166533654#1"/>
 <trip depart="197.0" departLane="best" departSpeed="max" from="45291718" id="rs_c000_i000_2160" to="4236279#0"/>
 <trip depart="198.0" departLane="best" departSpeed="max" from="4227193" id="rs_c000_i000_431" to="133113959#0"/>
 <trip depart="200.0" departLane="best" departSpeed="max" from="-140728549" id="rs_c000_i000_2204_part0" to="-157858318#1"/>
 <trip depart="200.0" departLane="best" departSpeed="max" from="24284901#0" id="rs_c000_i000_2206" to="236083705"/>
 <trip depart="201.0" departLane="best" departSpeed="max" from="-212690611#1" id="rs_c000_i000_2217" to="-212690611#0"/>
 <trip depart="201.0" departLane="best" departSpeed="max" from="219022332#1" id="rs_c000_i000_2220" to="4370493"/>
 <trip depart="204.0" departLane="best" departSpeed="max" from="-29689095" id="rs_c000_i000_2258" to="-350148486"/>
 <trip depart="204.0" departLane="best" departSpeed="max" from="4273680#5" id="rs_c000_i000_2260" to="4273680#6"/>
 <trip depart="204.0" departLane="best" departSpeed="max" from="74327982" id="rs_c000_i000_2261" to="37296677"/>
 <trip depart="205.0" departLane="best" departSpeed="max" from="-61410699#1" id="rs_c000_i000_2269" to="-61410699#0"/>
 <trip depart="205.0" departLane="best" departSpeed="max" from="626942404#1" id="rs_c000_i000_2276" to="-117099170"/>
 <trip depart="206.0" departLane="best" departSpeed="max" from="26426336" id="rs_c001_i000_401" to="260898351#0"/>
 <trip depart="206.0" departLane="best" departSpeed="max" from="-4233644#2" id="rs_c000_i001_306" to="-224710092"/>
 <trip depart="208.0" departLane="best" departSpeed="max" from="30259450" id="rs_c000_i000_333" to="30287664"/>
 <trip depart="208.0" departLane="best" departSpeed="max" from="333137877#1" id="rs_c001_i000_405" to="333137873#1"/>
 <trip depart="208.0" departLane="best" departSpeed="max" from="40346182" id="rs_c000_i000_2298" to="40346183"/>
 <trip depart="211.0" departLane="best" departSpeed="max" from="-332166062" id="rs_c000_i000_2329" to="44383234"/>
 <trip depart="211.0" departLane="best" departSpeed="max" from="-23197960" id="rs_c000_i001_318" to="-212690611#0"/>
 <trip depart="213.0" departLane="best" departSpeed="max" from="-5047449" id="rs_c000_i000_2349" to="-30618503#0"/>
 <trip depart="213.0" departLane="best" departSpeed="max" from="300981184#1" id="rs_c000_i000_2358" to="-4361529#0"/>
 <trip depart="214.0" departLane="best" departSpeed="max" from="-125143988#1" id="rs_c000_i000_2366" to="125143985#0"/>
 <trip depart="219.0" departLane="best" departSpeed="max" from="-125143981#1" id="rs_c000_i000_2416" to="-125351142#1"/>
 <trip depart="220.0" departLane="best" departSpeed="max" from="40395154" id="rs_c001_i000_428" to="362987788"/>
 <trip depart="220.0" departLane="best" departSpeed="max" from="-122978214" id="rs_c000_i000_2419" to="26965418"/>
 <trip depart="222.0" departLane="best" departSpeed="max" from="4227193" id="rs_c000_i000_132" to="133113959#0"/>
 <trip depart="223.0" departLane="best" departSpeed="max" from="4691969#0" id="rs_c000_i000_2463" to="4691969#1"/>
 <trip depart="224.0" departLane="best" departSpeed="max" from="-44149187" id="rs_c000_i000_2092" to="993027490"/>
 <trip depart="225.0" departLane="best" departSpeed="max" from="4227193" id="rs_c000_i000_251" to="133113959#0"/>
 <trip depart="225.0" departLane="best" departSpeed="max" from="-333144425" id="rs_c000_i000_2485" to="-333144397"/>
 <trip depart="227.0" departLane="best" departSpeed="max" from="-260427037#1" id="rs_c000_i000_2502" to="260427037#1"/>
 <trip depart="229.0" departLane="best" departSpeed="max" from="238004462" id="rs_c000_i002_54" to="329836527"/>
 <trip depart="229.0" departLane="best" departSpeed="max" from="-30016270#0" id="rs_c000_i000_2519" to="-306528031"/>
 <trip depart="230.0" departLane="best" departSpeed="max" from="4227193" id="rs_c000_i000_314" to="133113959#0"/>
 <trip depart="231.0" departLane="best" departSpeed="max" from="-108317860#0" id="rs_c001_i000_452" to="-108317853"/>
 <trip depart="234.0" departLane="best" departSpeed="max" from="388757908" id="rs_c000_i000_2569" to="83813129#0"/>
 <trip depart="234.0" departLane="best" departSpeed="max" from="74696843" id="rs_c000_i000_2574" to="195720444"/>
 <trip depart="234.0" departLane="best" departSpeed="max" from="95195874#1" id="rs_c000_i000_2578" to="95195874#2"/>
 <trip depart="237.0" departLane="best" departSpeed="max" from="-125590811#0" id="rs_c000_i000_979_part1" to="180976534#1"/>
 <trip depart="238.0" departLane="best" departSpeed="max" from="-139189889" id="rs_c000_i000_2614" to="-61453575"/>
 <trip depart="239.95" departLane="best" departSpeed="max" from="30472577#0" id="rs_c000_i000_822" to="24662115#0"/>
 <trip depart="240.0" departLane="best" departSpeed="max" from="77889443#3" id="rs_c001_i000_330" to="28740389#1"/>
 <trip depart="241.0" departLane="best" departSpeed="max" from="301434311#1" id="rs_c000_i000_2648" to="302368831#1"/>
 <trip depart="241.0" departLane="best" departSpeed="max" from="140372708#1" id="rs_c000_i000_2650" to="233226306"/>
 <trip depart="242.0" departLane="best" departSpeed="max" from="-10426171#1" id="rs_c001_i000_473" to="-10426171#0"/>
 <trip depart="245.0" departLane="best" departSpeed="max" from="-10560519" id="rs_c000_i000_2693" to="-351186843#0"/>
 <trip depart="246.0" departLane="best" departSpeed="max" from="-330415869" id="rs_c000_i000_2700" to="-5234278#1"/>
 <trip depart="247.0" departLane="best" departSpeed="max" from="35061795" id="rs_c001_i000_480" to="32262396#0"/>
 <trip depart="248.0" departLane="best" departSpeed="max" from="-10516236" id="rs_c000_i000_2728" to="-10516147#0"/>
 <trip depart="249.0" departLane="best" departSpeed="max" from="113586420" id="rs_c000_i000_2734" to="34734674#2"/>
 <trip depart="249.0" departLane="best" departSpeed="max" from="-117625588" id="rs_c000_i000_2736" to="28867808#0"/>
 <trip depart="252.0" departLane="best" departSpeed="max" from="285140317" id="rs_c001_i000_490" to="4261969"/>
 <trip depart="252.0" departLane="best" departSpeed="max" from="78060839#0" id="rs_c000_i000_2775" to="368532474#3"/>
 <trip depart="256.0" departLane="best" departSpeed="max" from="-5042317#2" id="rs_c000_i000_2809" to="37832304"/>
 <trip depart="256.0" departLane="best" departSpeed="max" from="324478542" id="rs_c000_i000_2814" to="-116624709"/>
 <trip depart="257.0" departLane="best" departSpeed="max" from="4688231#0" id="rs_c000_i000_2826" to="4686654#1"/>
 <trip depart="257.0" departLane="best" departSpeed="max" from="-5235974#2" id="rs_c000_i001_382" to="-5235974#1"/>
 <trip depart="259.0" departLane="best" departSpeed="max" from="125809105" id="rs_c000_i000_2847" to="-94087966"/>
 <trip depart="261.0" departLane="best" departSpeed="max" from="125351110" id="rs_c000_i000_2871" to="-122529096#3"/>
 <trip depart="261.0" departLane="best" departSpeed="max" from="-10516873" id="rs_c000_i001_393" to="-333156359#1"/>
 <trip depart="262.0" departLane="best" departSpeed="max" from="24423403#6" id="rs_c000_i001_397" to="-95937728#2"/>
 <trip depart="265.0" departLane="best" departSpeed="max" from="4252420" id="rs_c000_i000_2912" to="28740635"/>
 <trip depart="266.0" departLane="best" departSpeed="max" from="107287649#0" id="rs_c000_i000_2922" to="82239718#1"/>
 <trip depart="266.0" departLane="best" departSpeed="max" from="-74327233#0" id="rs_c000_i000_2926" to="-697562765#1"/>
 <trip depart="268.0" departLane="best" departSpeed="max" from="-137353425#1" id="rs_c000_i000_2955" to="-125351156#1"/>
 <trip depart="271.0" departLane="best" departSpeed="max" from="30665190" id="rs_c000_i000_2328" to="93408813"/>
 <trip depart="271.0" departLane="best" departSpeed="max" from="312459271" id="rs_c001_i000_512" to="55449400#0"/>
 <trip depart="271.0" departLane="best" departSpeed="max" from="-4685781#1" id="rs_c000_i000_2992" to="-4343651#2"/>
 <trip depart="272.0" departLane="best" departSpeed="max" from="4261967#0" id="rs_c000_i000_3013_part0" to="1033312860"/>
 <trip depart="274.0" departLane="best" departSpeed="max" from="-131780623" id="rs_c000_i000_3030" to="-108262993#0"/>
 <trip depart="275.0" departLane="best" departSpeed="max" from="-10436546" id="rs_c001_i000_523" to="51340266#1"/>
 <trip depart="275.0" departLane="best" departSpeed="max" from="-684426113" id="rs_c000_i000_3037_part0" to="285137507"/>
 <trip depart="275.0" departLane="best" departSpeed="max" from="-348403650#1" id="rs_c000_i000_3046_part0" to="-348403650#0"/>
 <trip depart="275.0" departLane="best" departSpeed="max" from="-139917030" id="rs_c000_i000_3047" to="799255207"/>
 <trip depart="275.0" departLane="best" departSpeed="max" from="10560717" id="rs_c000_i000_3048" to="139508000#0"/>
 <trip depart="275.0" departLane="best" departSpeed="max" from="-27369385" id="rs_c000_i000_3050" to="88113499#0"/>
 <trip depart="276.0" departLane="best" departSpeed="max" from="241894748" id="rs_c000_i000_3054" to="115915280#1"/>
 <trip depart="279.0" departLane="best" departSpeed="max" from="-233226307" id="rs_c001_i001_73" to="233226306"/>
 <trip depart="279.0" departLane="best" departSpeed="max" from="-26428533#1" id="rs_c000_i000_3092" to="-26428533#0"/>
 <trip depart="279.0" departLane="best" departSpeed="max" from="-16345605#0" id="rs_c000_i001_424" to="-16345612#0"/>
 <trip depart="280.0" departLane="best" departSpeed="max" from="-94550400" id="rs_c000_i000_3111" to="130681798#1"/>
 <trip depart="281.0" departLane="best" departSpeed="max" from="-125351142#4" id="rs_c001_i000_529" to="-125351142#3"/>
 <trip depart="283.0" departLane="best" departSpeed="max" from="-5235996#6" id="rs_c001_i001_75" to="-5235996#5"/>