<configuration>
    <input>
        <net-file value="whole_area.net.xml"/>
        <route-files value="trips.odtrips.rou.xml"/>
    </input>

    <output>
        <output-file value="verified_trips.rou.xml"/>
    </output>

    <report>
        <xml-validation value="never"/>
        <no-step-log value="true"/>
    </report>
</configuration>