<?xml version="1.0" encoding="UTF-8"?>

<!-- generated on 2024-01-31 21:11:58 by Eclipse SUMO libsumo Version 1.19.0
<configuration xmlns:xsi="http://www.w3.org/2001/XMLSchema-instance" xsi:noNamespaceSchemaLocation="http://sumo.dlr.de/xsd/libsumoConfiguration.xsd">

    <input>
        <net-file value="nets/ridepooling/MySUMOFile.net.xml"/>
        <route-files value="nets/ridepooling/randgridmixed.rou.xml"/>
        <additional-files value="nets/ridepooling/MySUMOparkingareas.add.xml"/>
    </input>

    <output>
        <emission-output value="nets/ridepooling/output/emissions.xml"/>
        <tripinfo-output value="nets/ridepooling/output/tripinfo.xml"/>
        <tripinfo-output.write-undeparted value="True"/>
    </output>

    <time>
        <begin value="0"/>
        <end value="3000"/>
    </time>

    <report>
        <verbose value="True"/>
        <log value="sumolog.txt"/>
        <message-log value="nets/ridepooling/message.xml"/>
        <error-log value="nets/ridepooling/error.xml"/>
        <duration-log.statistics value="True"/>
    </report>

    <taxi_device>
        <device.taxi.dispatch-algorithm value="traci"/>
        <device.taxi.dispatch-period value="1"/>
        <device.taxi.idle-algorithm value="stop"/>
    </taxi_device>

    <random_number>
        <seed value="4220"/>
    </random_number>

    <gui_only>
        <gui-settings-file value="nets/ridepooling/sumoview.xml"/>
    </gui_only>

</configuration>
