<nodes xmlns:xsi="http://www.w3.org/2001/XMLSchema-instance" version="1.20" xsi:noNamespaceSchemaLocation="http://sumo.dlr.de/xsd/nodes_file.xsd">
    <location netOffset="-248979.65,-6603560.62" convBoundary="130955.97,71699.01,140323.63,77704.21" origBoundary="22.487275,59.564699,26.767787,61.363497" projParameter="+proj=utm +zone=35 +ellps=WGS84 +datum=WGS84 +units=m +no_defs" />

    <node id="1004141631" x="138499.65" y="73669.54" type="priority" />
    <node id="1005650212" x="134659.74" y="74242.91" type="priority" />
    <node id="1008641433" x="137051.55" y="72834.72" type="priority" />
    <node id="1011769590" x="138878.85" y="72541.86" type="priority" />
    <node id="1015295124" x="131843.92" y="75588.22" type="priority" />
    <node id="1015295140" x="131847.11" y="75840.90" type="priority" />
    <node id="1015302541" x="131963.84" y="76050.42" type="right_before_left" />
    <node id="1015302563" x="132014.40" y="76006.48" type="priority" />
    <node id="1015634158" x="134002.52" y="73028.71" type="priority" />
    <node id="1015745808" x="131669.94" y="75760.06" type="right_before_left" />
    <node id="1015764744" x="131453.91" y="76177.46" type="priority" />
    <node id="1016001591" x="131825.72" y="76987.24" type="priority" />
    <node id="1016001600" x="131823.13" y="77002.94" type="priority" />
    <node id="1018189824" x="134659.84" y="74570.48" type="priority" />
    <node id="1025013587" x="133794.85" y="75509.99" type="priority" />
    <node id="1035583601" x="137108.62" y="73022.15" type="priority" />
    <node id="1036468063" x="137214.74" y="73090.52" type="priority" />
    <node id="1039762992" x="132321.51" y="75976.87" type="priority" />
    <node id="1044882331" x="132603.62" y="76258.00" type="priority" />
    <node id="1044882335" x="132540.12" y="76223.86" type="right_before_left" />
    <node id="1093781047" x="133033.35" y="72782.62" type="priority" />
    <node id="1093781092" x="133025.09" y="72795.09" type="priority" />
    <node id="1093786809" x="133495.50" y="72835.64" type="priority" />
    <node id="1094008112" x="133255.01" y="73027.28" type="priority" />
    <node id="1094109746" x="133341.43" y="72017.52" type="right_before_left" />
    <node id="1096645939" x="139464.45" y="73916.17" type="priority" />
    <node id="1107341314" x="136364.72" y="75642.39" type="priority" />
    <node id="1111362247" x="134538.01" y="74660.08" type="right_before_left" />
    <node id="1111389122" x="136121.34" y="72683.06" type="priority" />
    <node id="111524351" x="133910.13" y="73568.73" type="priority" />
    <node id="1118495613" x="133341.27" y="72079.73" type="priority" />
    <node id="1120059360" x="132015.37" y="77122.19" type="priority" />
    <node id="1120059363" x="131849.30" y="76826.99" type="priority" />
    <node id="1121644069" x="136204.43" y="75550.88" type="priority" />
    <node id="1121644099" x="136207.67" y="75572.42" type="priority" />
    <node id="1123133512" x="138516.14" y="75710.01" type="priority" />
    <node id="1123297269" x="138185.03" y="75576.19" type="priority" />
    <node id="1123335940" x="132428.08" y="76354.90" type="priority" />
    <node id="113836720" x="132710.01" y="74673.87" type="right_before_left" />
    <node id="1180669585" x="133576.14" y="72493.92" type="priority" />
    <node id="1181332839" x="132715.66" y="75696.39" type="priority" />
    <node id="1181332861" x="132538.67" y="75896.77" type="priority" />
    <node id="1287931049" x="137987.69" y="77082.62" type="priority" />
    <node id="1287931072" x="138258.31" y="76791.94" type="priority" />
    <node id="1287931084" x="138151.86" y="76671.10" type="right_before_left" />
    <node id="1287931172" x="137989.58" y="77041.26" type="priority" />
    <node id="1287931238" x="138117.74" y="76737.77" type="priority" />
    <node id="1287931276" x="138127.01" y="76721.97" type="right_before_left" />
    <node id="1306928416" x="135185.94" y="74534.00" type="priority" />
    <node id="1307631381" x="139470.60" y="74539.78" type="right_before_left" />
    <node id="1307782198" x="139572.62" y="74448.47" type="priority" />
    <node id="1308303461" x="139538.66" y="74742.17" type="priority" />
    <node id="1308304835" x="139694.39" y="74249.40" type="right_before_left" />
    <node id="1309633791" x="136916.04" y="76508.91" type="right_before_left" />
    <node id="1309633792" x="137058.09" y="76519.38" type="priority" />
    <node id="1309633795" x="137134.48" y="76532.79" type="priority" />
    <node id="1309633865" x="136788.54" y="76830.26" type="right_before_left" />
    <node id="1309633866" x="136977.24" y="76867.68" type="right_before_left" />
    <node id="1309633868" x="136765.52" y="76943.24" type="right_before_left" />
    <node id="1309633870" x="136955.56" y="76979.49" type="right_before_left" />
    <node id="1309633874" x="137089.41" y="76993.50" type="right_before_left" />
    <node id="1309636534" x="134124.55" y="75996.35" type="priority" />
    <node id="1309636537" x="134131.72" y="76034.01" type="priority" />
    <node id="1309636542" x="134080.66" y="76360.22" type="priority" />
    <node id="1310958547" x="133161.56" y="77176.59" type="priority" />
    <node id="1311836875" x="135223.73" y="76061.37" type="priority" />
    <node id="1319121893" x="137493.51" y="76268.56" type="right_before_left" />
    <node id="1319121895" x="137515.12" y="76274.28" type="priority" />
    <node id="1319121902" x="137549.00" y="76296.79" type="priority" />
    <node id="1319121903" x="137678.28" y="76305.86" type="priority" />
    <node id="1319121905" x="137813.37" y="76316.20" type="priority" />
    <node id="1319121921" x="137764.02" y="76324.04" type="priority" />
    <node id="1319121925" x="137461.45" y="76381.80" type="right_before_left" />
    <node id="1319121930" x="137663.01" y="76404.02" type="right_before_left" />
    <node id="1319121950" x="137634.38" y="76435.08" type="right_before_left" />
    <node id="1319121952" x="137741.13" y="76446.97" type="right_before_left" />
    <node id="1319121955" x="137440.33" y="76492.34" type="priority" />
    <node id="1319121976" x="137884.51" y="76502.84" type="right_before_left" />
    <node id="1319121989" x="137842.82" y="76571.23" type="right_before_left" />
    <node id="1319122004" x="138043.09" y="76608.58" type="priority" />
    <node id="1319122008" x="137587.99" y="76633.03" type="right_before_left" />
    <node id="1319122026" x="138035.03" y="76667.38" type="priority" />
    <node id="1319122030" x="137824.16" y="76678.37" type="right_before_left" />
    <node id="1319122119" x="137641.65" y="76751.42" type="right_before_left" />
    <node id="1319122131" x="137808.42" y="76752.18" type="right_before_left" />
    <node id="1319122137" x="137724.33" y="76765.52" type="right_before_left" />
    <node id="1319122142" x="137568.50" y="76781.38" type="priority" />
    <node id="1319122144" x="137633.46" y="76795.34" type="priority" />
    <node id="1324407450" x="137503.19" y="76195.82" type="priority" />
    <node id="1324407452" x="138218.68" y="76193.75" type="priority" />
    <node id="1324407459" x="137563.75" y="76227.49" type="priority" />
    <node id="1324407460" x="137728.38" y="76226.57" type="priority" />
    <node id="1324407461" x="137442.36" y="76250.68" type="priority" />
    <node id="1324407468" x="138352.90" y="76238.17" type="right_before_left" />
    <node id="1324407479" x="138450.50" y="76249.89" type="right_before_left" />
    <node id="1324407485" x="138150.03" y="76279.66" type="priority" />
    <node id="1324407500" x="138116.17" y="76319.60" type="priority" />
    <node id="1324407511" x="138067.02" y="76406.25" type="priority" />
    <node id="1324407514" x="138242.07" y="76407.74" type="right_before_left" />
    <node id="1324407518" x="138397.90" y="76417.11" type="priority" />
    <node id="1324407538" x="138055.20" y="76509.71" type="priority" />
    <node id="1324407539" x="138214.90" y="76508.56" type="right_before_left" />
    <node id="1324407617" x="137457.95" y="76714.82" type="priority" />
    <node id="1324407619" x="138008.94" y="76710.91" type="priority" />
    <node id="1324407622" x="137578.13" y="76738.32" type="right_before_left" />
    <node id="1324407645" x="137727.03" y="76827.56" type="priority" />
    <node id="1324407675" x="137855.83" y="76914.76" type="priority" />
    <node id="1324407676" x="137622.55" y="76932.77" type="priority" />
    <node id="1324407677" x="137699.32" y="76946.94" type="right_before_left" />
    <node id="1324420440" x="138835.45" y="75533.03" type="priority" />
    <node id="1324420598" x="138896.97" y="75764.84" type="priority" />
    <node id="1324420617" x="138332.33" y="75805.33" type="priority" />
    <node id="1324420678" x="138183.97" y="75887.24" type="priority" />
    <node id="1324420684" x="138292.31" y="75901.18" type="priority" />
    <node id="1324420686" x="138683.41" y="75898.25" type="right_before_left" />
    <node id="1324420728" x="138273.27" y="75987.79" type="priority" />
    <node id="1324420730" x="138671.44" y="75978.60" type="right_before_left" />
    <node id="1324420776" x="138650.66" y="76039.60" type="right_before_left" />
    <node id="1324420841" x="138619.22" y="76118.09" type="right_before_left" />
    <node id="1324420888" x="138591.43" y="76185.18" type="right_before_left" />
    <node id="1324420979" x="138747.84" y="76352.36" type="priority" />
    <node id="1324709496" x="137405.63" y="75301.56" type="right_before_left" />
    <node id="1324709514" x="137555.57" y="75360.75" type="right_before_left" />
    <node id="1324709548" x="137420.32" y="75660.98" type="priority" />
    <node id="1324725096" x="137603.82" y="75443.04" type="right_before_left" />
    <node id="1324725104" x="137727.19" y="75500.71" type="right_before_left" />
    <node id="1324725107" x="137560.88" y="75551.22" type="right_before_left" />
    <node id="1324725122" x="137845.36" y="75766.81" type="right_before_left" />
    <node id="1324733152" x="137627.35" y="75385.85" type="priority" />
    <node id="1324733161" x="137973.59" y="75507.11" type="priority" />
    <node id="1324733163" x="137486.86" y="75533.24" type="priority" />
    <node id="1324733168" x="137459.59" y="75598.69" type="right_before_left" />
    <node id="1324733169" x="137806.72" y="75873.76" type="priority" />
    <node id="1324736444" x="138159.00" y="75210.74" type="priority" />
    <node id="1324736455" x="138277.68" y="75283.70" type="right_before_left" />
    <node id="1324736459" x="138085.30" y="75320.05" type="priority" />
    <node id="1324736466" x="138160.66" y="75355.78" type="right_before_left" />
    <node id="1324736467" x="138250.80" y="75361.42" type="right_before_left" />
    <node id="1324736472" x="138323.62" y="75411.15" type="priority" />
    <node id="1324736476" x="138367.76" y="75482.39" type="right_before_left" />
    <node id="1324736480" x="138245.82" y="75503.70" type="priority" />
    <node id="1324739625" x="137685.90" y="75241.35" type="right_before_left" />
    <node id="1324739626" x="138354.61" y="75225.78" type="priority" />
    <node id="1324739629" x="138567.65" y="75298.75" type="right_before_left" />
    <node id="1324739632" x="138455.54" y="75325.72" type="priority" />
    <node id="1324739633" x="138631.15" y="75368.34" type="right_before_left" />
    <node id="1324739634" x="138700.31" y="75446.14" type="right_before_left" />
    <node id="1324739638" x="138441.51" y="75529.06" type="priority" />
    <node id="1324739640" x="138499.96" y="75553.64" type="right_before_left" />
    <node id="1324739642" x="138430.21" y="75573.09" type="priority" />
    <node id="1324739646" x="138578.02" y="75592.60" type="right_before_left" />
    <node id="1324739650" x="138675.35" y="75604.80" type="right_before_left" />
    <node id="1324777020" x="137956.92" y="75013.19" type="priority" />
    <node id="1324777037" x="137766.03" y="75086.44" type="right_before_left" />
    <node id="1324777052" x="138372.91" y="75111.03" type="priority" />
    <node id="1324777061" x="137846.95" y="75141.60" type="right_before_left" />
    <node id="1324777067" x="138395.58" y="75131.39" type="priority" />
    <node id="1324777071" x="138262.42" y="75134.21" type="right_before_left" />
    <node id="1324777086" x="138300.28" y="75173.11" type="right_before_left" />
    <node id="1324777100" x="137934.79" y="75206.93" type="right_before_left" />
    <node id="1324788987" x="137975.40" y="74939.31" type="right_before_left" />
    <node id="1324788991" x="138159.11" y="74987.13" type="right_before_left" />
    <node id="1324788994" x="138137.18" y="75066.67" type="priority" />
    <node id="1324797156" x="137916.51" y="74752.68" type="right_before_left" />
    <node id="1324797162" x="138046.46" y="74805.20" type="right_before_left" />
    <node id="1324797169" x="137692.31" y="74856.32" type="priority" />
    <node id="1324797175" x="137891.19" y="74873.34" type="right_before_left" />
    <node id="1324797176" x="137971.59" y="74881.40" type="right_before_left" />
    <node id="1324797179" x="137844.22" y="74916.29" type="priority" />
    <node id="1324879783" x="137267.36" y="74746.62" type="right_before_left" />
    <node id="1324879811" x="137492.01" y="74900.86" type="right_before_left" />
    <node id="1324918300" x="137453.30" y="74518.53" type="priority" />
    <node id="1324918333" x="137238.47" y="74617.16" type="priority" />
    <node id="1324918339" x="137555.49" y="74609.61" type="priority" />
    <node id="1324918384" x="137274.39" y="74624.11" type="right_before_left" />
    <node id="1324918401" x="137371.58" y="74644.81" type="right_before_left" />
    <node id="1324918407" x="137474.96" y="74666.73" type="right_before_left" />
    <node id="1324918417" x="137360.98" y="74700.48" type="priority" />
    <node id="1324918424" x="137539.20" y="74759.56" type="right_before_left" />
    <node id="1324918430" x="137452.31" y="74786.62" type="right_before_left" />
    <node id="1324918435" x="137506.42" y="74799.99" type="right_before_left" />
    <node id="1324960254" x="137406.75" y="74351.85" type="priority" />
    <node id="1324960300" x="137519.83" y="74477.55" type="priority" />
    <node id="1324960312" x="137418.22" y="74486.44" type="priority" />
    <node id="1324960358" x="137649.05" y="74538.55" type="right_before_left" />
    <node id="1324960384" x="137625.73" y="74579.98" type="right_before_left" />
    <node id="1324960395" x="137579.02" y="74633.66" type="priority" />
    <node id="1324960401" x="137715.60" y="74637.59" type="right_before_left" />
    <node id="1324960442" x="137671.54" y="74738.70" type="priority" />
    <node id="1325001938" x="136859.49" y="74344.10" type="right_before_left" />
    <node id="1325001950" x="136993.33" y="74371.99" type="right_before_left" />
    <node id="1325001958" x="137074.50" y="74388.97" type="right_before_left" />
    <node id="1325001974" x="137144.28" y="74403.30" type="priority" />
    <node id="1325001991" x="136963.99" y="74496.96" type="right_before_left" />
    <node id="1325001992" x="137052.90" y="74490.12" type="right_before_left" />
    <node id="1325001994" x="137099.14" y="74497.89" type="priority" />
    <node id="1325001995" x="136949.69" y="74559.19" type="right_before_left" />
    <node id="1325001996" x="137035.73" y="74576.34" type="right_before_left" />
    <node id="1325002008" x="136926.08" y="74663.29" type="priority" />
    <node id="1325002049" x="137001.55" y="74810.70" type="priority" />
    <node id="1325022555" x="136869.59" y="74292.81" type="priority" />
    <node id="1325022604" x="136801.08" y="74484.82" type="right_before_left" />
    <node id="1325022633" x="136833.47" y="74593.67" type="right_before_left" />
    <node id="1325022643" x="136863.04" y="74715.41" type="right_before_left" />
    <node id="1325052121" x="136864.46" y="75208.99" type="priority" />
    <node id="1329534424" x="136668.51" y="75978.28" type="priority" />
    <node id="1329534440" x="136533.99" y="75985.21" type="priority" />
    <node id="1329534443" x="136439.11" y="75996.88" type="priority" />
    <node id="1329534449" x="136622.80" y="76016.66" type="priority" />
    <node id="1329534460" x="136843.99" y="76013.96" type="right_before_left" />
    <node id="1329534464" x="136342.69" y="76047.59" type="priority" />
    <node id="1329534472" x="136425.99" y="76064.07" type="right_before_left" />
    <node id="1329534481" x="136519.88" y="76081.81" type="right_before_left" />
    <node id="1329534486" x="136606.57" y="76098.62" type="right_before_left" />
    <node id="1329534490" x="137239.83" y="76088.89" type="right_before_left" />
    <node id="1329534496" x="137353.61" y="76115.74" type="priority" />
    <node id="1329534504" x="136324.55" y="76159.42" type="traffic_light" tl="1329534504" tlType="actuated" />
    <node id="1329534509" x="136622.41" y="76216.77" type="priority" />
    <node id="1329534519" x="137214.80" y="76215.15" type="right_before_left" />
    <node id="1329534522" x="136826.63" y="76256.40" type="priority" />
    <node id="1329534543" x="137199.13" y="76330.59" type="priority" />
    <node id="1336069737" x="136306.64" y="76269.37" type="priority" />
    <node id="1336069747" x="136486.72" y="76305.17" type="right_before_left" />
    <node id="1336069752" x="136601.28" y="76328.80" type="right_before_left" />
    <node id="1336069755" x="136936.84" y="76396.08" type="right_before_left" />
    <node id="1336069760" x="136463.52" y="76420.21" type="right_before_left" />
    <node id="1336069767" x="137075.38" y="76422.74" type="right_before_left" />
    <node id="1336084236" x="135954.18" y="76667.05" type="right_before_left" />
    <node id="1336084237" x="136196.25" y="76684.08" type="right_before_left" />
    <node id="1336084238" x="136189.43" y="76712.86" type="priority" />
    <node id="1336084239" x="136246.26" y="76723.23" type="right_before_left" />
    <node id="1338434356" x="137687.92" y="77045.70" type="right_before_left" />
    <node id="1338434358" x="137673.64" y="77136.84" type="right_before_left" />
    <node id="1359417241" x="136604.01" y="74315.22" type="right_before_left" />
    <node id="1359417246" x="136698.06" y="74388.27" type="right_before_left" />
    <node id="1359417262" x="136548.45" y="74497.41" type="right_before_left" />
    <node id="1359417271" x="136581.93" y="74854.22" type="priority" />
    <node id="1368959359" x="135575.38" y="76243.12" type="priority" />
    <node id="1368959378" x="135840.86" y="76297.37" type="priority" />
    <node id="1368959397" x="135638.42" y="76329.77" type="priority" />
    <node id="1368959403" x="135969.44" y="76322.81" type="right_before_left" />
    <node id="1368959497" x="135611.86" y="76473.95" type="right_before_left" />
    <node id="1368959518" x="135716.76" y="76494.62" type="right_before_left" />
    <node id="1368959538" x="135848.21" y="76520.73" type="right_before_left" />
    <node id="1368959551" x="135889.85" y="76528.72" type="priority" />
    <node id="1368959603" x="135470.48" y="76577.39" type="priority" />
    <node id="1368959605" x="135839.02" y="76568.33" type="right_before_left" />
    <node id="1368959638" x="135586.83" y="76598.61" type="right_before_left" />
    <node id="1368959660" x="135987.53" y="76597.17" type="priority" />
    <node id="1368959685" x="135824.09" y="76641.29" type="right_before_left" />
    <node id="1368959719" x="135475.66" y="76695.14" type="priority" />
    <node id="1368959725" x="135574.74" y="76715.21" type="right_before_left" />
    <node id="1368959739" x="135671.36" y="76732.22" type="right_before_left" />
    <node id="1368959742" x="135796.40" y="76755.56" type="right_before_left" />
    <node id="1368959744" x="135931.66" y="76782.61" type="right_before_left" />
    <node id="1368959745" x="135467.37" y="76808.05" type="priority" />
    <node id="1368959754" x="135650.28" y="76844.64" type="right_before_left" />
    <node id="1368959756" x="136169.01" y="76828.80" type="priority" />
    <node id="1368959761" x="135770.28" y="76867.11" type="right_before_left" />
    <node id="1368959763" x="135490.54" y="76884.39" type="right_before_left" />
    <node id="1368959765" x="135909.99" y="76893.27" type="right_before_left" />
    <node id="1368959769" x="135638.46" y="76913.11" type="right_before_left" />
    <node id="1368959772" x="135483.35" y="76922.36" type="priority" />
    <node id="1368959776" x="135713.58" y="76928.01" type="right_before_left" />
    <node id="1368959777" x="135550.83" y="76936.76" type="priority" />
    <node id="1368959780" x="135786.09" y="76940.77" type="right_before_left" />
    <node id="1368959781" x="135630.70" y="76951.77" type="priority" />
    <node id="1368959783" x="135855.44" y="76955.28" type="right_before_left" />
    <node id="1368959784" x="135706.42" y="76966.51" type="priority" />
    <node id="1368959785" x="135778.83" y="76978.26" type="priority" />
    <node id="1368959786" x="135847.19" y="76994.34" type="priority" />
    <node id="1368975955" x="136276.09" y="72908.78" type="priority" />
    <node id="1368975958" x="136314.75" y="72991.14" type="priority" />
    <node id="1369860397" x="134890.38" y="76431.15" type="priority" />
    <node id="1370190266" x="138470.88" y="75354.97" type="right_before_left" />
    <node id="1376456262" x="132483.22" y="75991.25" type="priority" />
    <node id="1376478204" x="132170.38" y="76404.02" type="priority" />
    <node id="1376478222" x="132266.71" y="76254.82" type="priority" />
    <node id="1376478227" x="131941.54" y="76684.01" type="priority" />
    <node id="1392571946" x="137104.60" y="76853.37" type="right_before_left" />
    <node id="1392571951" x="136441.52" y="76880.03" type="right_before_left" />
    <node id="1392571977" x="137308.06" y="76874.56" type="priority" />
    <node id="1392571993" x="136579.56" y="76907.82" type="right_before_left" />
    <node id="1392572007" x="137356.93" y="76898.10" type="priority" />
    <node id="1392572010" x="136150.79" y="76937.92" type="priority" />
    <node id="1392572121" x="137247.62" y="77009.03" type="right_before_left" />
    <node id="1392572142" x="137343.50" y="77017.97" type="right_before_left" />
    <node id="1392572170" x="136395.10" y="77059.78" type="right_before_left" />
    <node id="1392572205" x="136464.01" y="77072.68" type="right_before_left" />
    <node id="1392572212" x="136123.41" y="77095.67" type="priority" />
    <node id="1392572222" x="136533.87" y="77085.62" type="right_before_left" />
    <node id="1392572238" x="136387.55" y="77100.21" type="priority" />
    <node id="1392572241" x="136935.89" y="77082.95" type="right_before_left" />
    <node id="1392572259" x="136455.86" y="77111.62" type="priority" />
    <node id="1392572261" x="136213.16" y="77122.20" type="priority" />
    <node id="1392572274" x="137075.31" y="77110.79" type="right_before_left" />
    <node id="1392572284" x="136738.51" y="77125.99" type="priority" />
    <node id="1392572305" x="137157.61" y="77127.75" type="priority" />
    <node id="1392572306" x="136519.40" y="77152.65" type="priority" />
    <node id="1392572337" x="137234.61" y="77144.47" type="right_before_left" />
    <node id="1392572341" x="136921.50" y="77162.22" type="right_before_left" />
    <node id="1392572351" x="136060.01" y="77210.67" type="priority" />
    <node id="1394257281" x="132667.10" y="74662.15" type="priority" />
    <node id="1394257550" x="132657.63" y="75186.83" type="priority" />
    <node id="1394257557" x="132642.04" y="74677.45" type="priority" />
    <node id="1394257756" x="132640.94" y="74658.51" type="priority" />
    <node id="1394257770" x="132507.55" y="74911.68" type="priority" />
    <node id="1394257786" x="132661.85" y="74655.22" type="priority" />
    <node id="1394257791" x="132960.04" y="75408.18" type="priority" />
    <node id="1394257794" x="133324.07" y="74952.09" type="priority" />
    <node id="1394257812" x="133283.08" y="75118.81" type="priority" />
    <node id="1394257845" x="133380.87" y="74641.03" type="priority" />
    <node id="1394257958" x="132665.15" y="74676.09" type="priority" />
    <node id="1394257960" x="133424.22" y="74822.99" type="priority" />
    <node id="1394582458" x="132325.41" y="74820.64" type="priority" />
    <node id="1395320279" x="131663.87" y="75121.82" type="priority" />
    <node id="1395320282" x="132121.34" y="75066.47" type="priority" />
    <node id="1395320289" x="131967.36" y="75347.44" type="priority" />
    <node id="1395320301" x="131797.59" y="75377.27" type="priority" />
    <node id="1395320308" x="131589.23" y="74884.77" type="priority" />
    <node id="1395320315" x="131423.56" y="74924.20" type="priority" />
    <node id="1395320355" x="132055.43" y="75383.08" type="priority" />
    <node id="1395320365" x="131789.28" y="75155.80" type="priority" />
    <node id="1395320406" x="132172.47" y="75404.20" type="priority" />
    <node id="1395320588" x="131863.88" y="75282.90" type="priority" />
    <node id="1395321159" x="131915.03" y="74824.53" type="priority" />
    <node id="1395321291" x="132744.43" y="75640.53" type="priority" />
    <node id="1395321394" x="131795.35" y="75384.33" type="priority" />
    <node id="1395321597" x="131874.51" y="74843.04" type="priority" />
    <node id="1395321715" x="131838.34" y="75348.31" type="priority" />
    <node id="1395321739" x="131856.14" y="75128.72" type="priority" />
    <node id="1395371181" x="131747.39" y="74722.70" type="priority" />
    <node id="1395371297" x="131791.42" y="74805.76" type="priority" />
    <node id="1395371316" x="131795.88" y="74794.29" type="priority" />
    <node id="1395427736" x="132182.59" y="72792.19" type="right_before_left" />
    <node id="1396381776" x="133081.45" y="72416.19" type="priority" />
    <node id="1396383142" x="133117.81" y="72449.85" type="priority" />
    <node id="1396788416" x="132803.71" y="74046.75" type="priority" />
    <node id="1397511773" x="131802.23" y="74437.06" type="right_before_left" />
    <node id="1399107585" x="133528.04" y="73108.12" type="priority" />
    <node id="1399108006" x="133500.64" y="72949.21" type="priority" />
    <node id="1399108566" x="133498.94" y="73022.21" type="priority" />
    <node id="1399180932" x="133554.88" y="73581.05" type="priority" />
    <node id="1399181492" x="133217.31" y="73516.48" type="priority" />
    <node id="1399214410" x="133683.16" y="74025.09" type="priority" />
    <node id="1401706856" x="133610.96" y="74142.55" type="priority" />
    <node id="1401706867" x="133331.67" y="73757.01" type="priority" />
    <node id="1401707822" x="133536.36" y="74124.38" type="priority" />
    <node id="1401708286" x="133096.29" y="74088.68" type="priority" />
    <node id="1402161836" x="133576.05" y="75222.13" type="priority" />
    <node id="1405933656" x="139047.46" y="72559.59" type="priority" />
    <node id="1405972324" x="139044.74" y="72874.47" type="priority" />
    <node id="1408367393" x="132328.04" y="77029.14" type="priority" />
    <node id="1410813163" x="134585.94" y="73668.00" type="priority" />
    <node id="141359282" x="133793.43" y="75643.81" type="right_before_left" />
    <node id="1430547942" x="137214.06" y="72789.99" type="priority" />
    <node id="143488400" x="135984.74" y="74196.56" type="priority" />
    <node id="143490644" x="133710.68" y="75650.69" type="right_before_left" />
    <node id="143490651" x="133610.38" y="75626.15" type="priority" />
    <node id="143490673" x="133335.20" y="75618.62" type="right_before_left" />
    <node id="143490699" x="133278.97" y="75663.19" type="right_before_left" />
    <node id="143490791" x="133422.85" y="75414.04" type="priority" />
    <node id="143490827" x="133475.93" y="75633.84" type="right_before_left" />
    <node id="143569239" x="133679.05" y="75698.85" type="right_before_left" />
    <node id="143569388" x="133815.97" y="75510.91" type="priority" />
    <node id="143569523" x="133611.71" y="75328.72" type="priority" />
    <node id="143569585" x="133456.69" y="75286.15" type="right_before_left" />
    <node id="143595907" x="134087.19" y="76268.49" type="priority" />
    <node id="143595914" x="134066.73" y="76257.21" type="priority" />
    <node id="143595920" x="134069.04" y="76269.71" type="priority" />
    <node id="143614004" x="133346.42" y="76693.15" type="priority" />
    <node id="1439103911" x="138670.07" y="72473.88" type="priority" />
    <node id="1452961547" x="135866.73" y="75383.27" type="priority" />
    <node id="1452961600" x="136203.90" y="75726.34" type="priority" />
    <node id="1452961603" x="136379.51" y="75726.80" type="priority" />
    <node id="1461035588" x="132514.62" y="75949.80" type="priority" />
    <node id="1461274503" x="133977.85" y="75633.62" type="priority" />
    <node id="1461274505" x="134021.98" y="75645.76" type="priority" />
    <node id="1461274609" x="133931.37" y="76017.09" type="priority" />
    <node id="1461274653" x="134131.58" y="76134.29" type="priority" />
    <node id="1461274655" x="134218.80" y="76169.98" type="priority" />
    <node id="1461274666" x="134282.91" y="76205.23" type="priority" />
    <node id="1461628822" x="133905.57" y="73407.35" type="priority" />
    <node id="1461628847" x="133948.55" y="73522.37" type="priority" />
    <node id="1464570723" x="133616.35" y="72755.57" type="priority" />
    <node id="1464655242" x="131634.18" y="76820.13" type="priority" />
    <node id="1464655244" x="131811.64" y="76855.63" type="priority" />
    <node id="1464683164" x="132429.98" y="76160.56" type="right_before_left" />
    <node id="1476767107" x="131361.17" y="74235.54" type="priority">
        <param key="buffer_stop" value="true" />
    </node>
    <node id="1493218859" x="139493.17" y="76258.53" type="priority" />
    <node id="1499964506" x="136181.01" y="74661.68" type="right_before_left" />