<edges xmlns:xsi="http://www.w3.org/2001/XMLSchema-instance" version="1.20" xsi:noNamespaceSchemaLocation="http://sumo.dlr.de/xsd/edges_file.xsd">
    <location netOffset="-248979.65,-6603560.62" convBoundary="130955.97,71699.01,140323.63,77704.21" origBoundary="22.487275,59.564699,26.767787,61.363497" projParameter="+proj=utm +zone=35 +ellps=WGS84 +datum=WGS84 +units=m +no_defs" />

    <edge id="-100016823#0" from="1324739629" to="1324777067" name="Torivoudintie" priority="3" type="highway.residential" numLanes="1" speed="11.11" shape="138567.65,75298.75 138562.02,75292.46 138556.23,75286.43 138551.15,75281.13 138513.11,75244.90 138508.61,75240.41 138498.41,75230.22 138492.27,75224.09 138491.15,75222.99 138489.82,75221.69 138454.34,75186.40 138453.43,75185.50 138452.93,75185.01 138451.22,75183.37 138450.38,75182.55 138443.35,75175.96 138442.76,75175.39 138435.25,75168.17 138416.71,75150.81 138415.63,75149.60 138403.95,75138.85 138401.54,75136.63 138395.58,75131.39" disallow="tram rail_urban rail rail_electric rail_fast ship">
        <lane index="0">
            <param key="origId" value="100016823 100016824 54584472 54584474 54584391 54584390 54584335 54584389 54584333 53682408" />
        </lane>
    </edge>
    <edge id="-100016823#1" from="1324739633" to="1324739629" name="Torivoudintie" priority="3" type="highway.residential" numLanes="1" speed="11.11" shape="138631.15,75368.34 138575.97,75308.06 138567.65,75298.75" disallow="tram rail_urban rail rail_electric rail_fast ship">
        <lane index="0">
            <param key="origId" value="100016823" />
        </lane>
    </edge>
    <edge id="-100016823#2" from="1324739634" to="1324739633" name="Torivoudintie" priority="3" type="highway.residential" numLanes="1" speed="11.11" shape="138700.31,75446.14 138697.43,75442.91 138662.55,75403.66 138656.56,75396.92 138641.60,75380.10 138631.15,75368.34" disallow="tram rail_urban rail rail_electric rail_fast ship">
        <lane index="0">
            <param key="origId" value="100016823" />
        </lane>
    </edge>
    <edge id="-100016823#3" from="6097068394" to="1324739634" name="Torivoudintie" priority="3" type="highway.residential" numLanes="1" speed="11.11" shape="138736.17,75482.03 138730.50,75477.80 138700.31,75446.14" disallow="tram rail_urban rail rail_electric rail_fast ship">
        <lane index="0">
            <param key="origId" value="100016823" />
        </lane>
    </edge>
    <edge id="-100018560" from="36428196" to="36428671" name="Lohimiehenpolku" priority="3" type="highway.residential" numLanes="1" speed="8.33" shape="139118.73,75070.55 139128.12,75013.78 139135.53,74968.30" disallow="tram rail_urban rail rail_electric rail_fast ship">
        <lane index="0">
            <param key="origId" value="100018560" />
        </lane>
    </edge>
    <edge id="-100018562" from="36428035" to="36428672" name="Pikkukoskentie" priority="3" type="highway.residential" numLanes="1" speed="8.33" shape="139204.58,74913.52 139197.24,74908.51 139136.50,74866.52" disallow="tram rail_urban rail rail_electric rail_fast ship">
        <lane index="0">
            <param key="origId" value="100018562" />
        </lane>
    </edge>
    <edge id="-100018564" from="879371097" to="36428193" name="Yl&#228;nk&#246;tie" priority="3" type="highway.residential" numLanes="1" speed="8.33" shape="138898.97,75072.24 138891.64,75067.39 138887.83,75063.14 138871.93,75034.21 138866.29,75022.16 138864.52,75014.81 138864.26,75008.57 138864.86,75001.89 138865.59,74997.71 138866.53,74993.31 138868.14,74984.11 138871.26,74969.14" disallow="tram rail_urban rail rail_electric rail_fast ship">
        <lane index="0">
            <param key="origId" value="100018564 100018563 100018561 100018569 5205951" />
        </lane>
    </edge>
    <edge id="-100018566#0" from="36428193" to="36428192" name="Aidasm&#228;entie" priority="3" type="highway.residential" numLanes="1" speed="8.33" disallow="tram rail_urban rail rail_electric rail_fast ship">
        <lane index="0">
            <param key="origId" value="100018566" />
        </lane>
    </edge>
    <edge id="-100018566#1" from="36428196" to="36428193" name="Aidasm&#228;entie" priority="3" type="highway.residential" numLanes="1" speed="8.33" shape="139118.73,75070.55 138977.80,75034.01 138955.21,75012.54 138922.24,74981.23 138917.48,74979.09 138871.26,74969.14" disallow="tram rail_urban rail rail_electric rail_fast ship">
        <lane index="0">
            <param key="origId" value="100018566" />
        </lane>
    </edge>
    <edge id="-100018567" from="36428672" to="36428031" name="Pikkukoskentie" priority="3" type="highway.residential" numLanes="1" speed="8.33" shape="139136.50,74866.52 139109.27,74847.59 139076.30,74824.88 139041.80,74799.85 139020.99,74785.29 139001.27,74774.06 138989.50,74769.35 138961.21,74761.95 138942.77,74757.94 138834.89,74733.30 138814.53,74728.84" disallow="tram rail_urban rail rail_electric rail_fast ship">
        <lane index="0">
            <param key="origId" value="100018567" />
        </lane>
    </edge>
    <edge id="-100018570#0" from="36428796" to="36428196" name="Aidasm&#228;entie" priority="3" type="highway.residential" numLanes="1" speed="8.33" disallow="tram rail_urban rail rail_electric rail_fast ship">
        <lane index="0">
            <param key="origId" value="100018570" />
        </lane>
    </edge>
    <edge id="-100018570#1" from="1516980077" to="36428796" name="Aidasm&#228;entie" priority="3" type="highway.residential" numLanes="1" speed="8.33" shape="138876.58,75183.69 138890.71,75194.95 138913.78,75212.95 138921.28,75216.36 138934.24,75217.53 138947.06,75217.54 139027.82,75216.53 139050.94,75217.05 139082.58,75217.66 139096.72,75218.81 139105.89,75219.55 139113.69,75218.89 139121.64,75216.67 139131.20,75211.11 139140.40,75201.75 139142.72,75192.19 139142.61,75185.14 139134.08,75149.81 139132.55,75142.31 139123.70,75098.91" disallow="tram rail_urban rail rail_electric rail_fast ship">
        <lane index="0">
            <param key="origId" value="100018570" />
        </lane>
    </edge>
    <edge id="-100073149" from="1324420440" to="cluster_1324420662_2403439229" name="Mikkolantie" priority="4" type="highway.unclassified" numLanes="1" speed="11.11" shape="138835.45,75533.03 138832.28,75537.93 138819.56,75563.15 138817.02,75568.17 138780.43,75638.31 138774.67,75648.34 138756.51,75679.96 138741.42,75703.71 138730.96,75721.69 138723.66,75737.47 138709.63,75770.83 138704.76,75787.25 138699.11,75810.84 138697.47,75816.43 138696.17,75819.57 138695.46,75822.60 138694.25,75829.75" disallow="tram rail_urban rail rail_electric rail_fast ship">
        <lane index="0">
            <param key="origId" value="100073149 100073151 26014498" />
        </lane>
        <param key="origTo" value="1324420662" />
    </edge>
    <edge id="-100074572#0" from="36427376" to="36427007" name="Jokiniementie" priority="10" type="highway.tertiary" numLanes="1" speed="11.11" shape="138701.98,74877.33 138708.74,74860.77 138716.69,74844.31 138730.75,74811.65 138740.60,74788.76 138744.40,74779.91 138751.88,74762.60 138754.41,74755.54 138758.97,74731.73 138760.24,74722.28 138761.22,74714.84" disallow="tram rail_urban rail rail_electric rail_fast ship">
        <lane index="0">
            <param key="origId" value="100074572 100018568 100074576 100018559 29689096" />
        </lane>
    </edge>
    <edge id="-100074572#1" from="36427014" to="36427376" name="Jokiniementie" priority="10" type="highway.tertiary" numLanes="1" speed="11.11" shape="138711.64,74999.15 138703.00,74983.42 138697.58,74970.09 138693.80,74952.68 138693.01,74942.70 138692.80,74929.51 138693.18,74923.68 138694.89,74907.77 138698.68,74889.13 138701.98,74877.33" disallow="tram rail_urban rail rail_electric rail_fast ship">
        <lane index="0">
            <param key="origId" value="100074572" />
        </lane>
    </edge>
    <edge id="-101158310" from="1520486529" to="1520486425" name="Paraistentie" priority="3" type="highway.residential" numLanes="1" speed="8.33" shape="134809.72,72431.32 134811.28,72420.80 134822.25,72393.38 134831.60,72369.73 134839.45,72350.53 134841.09,72346.84 134842.42,72341.60 134842.89,72336.14 134841.70,72302.71 134841.33,72278.72 134840.84,72264.98 134840.78,72263.31 134840.07,72258.20" disallow="tram rail_urban rail rail_electric rail_fast ship">
        <lane index="0">
            <param key="origId" value="101158310 82256430 35065641 379530233" />
        </lane>
    </edge>
    <edge id="-101486395" from="60706277" to="60706280" name="Vaakalinnuntie" priority="3" type="highway.residential" numLanes="1" speed="8.33" shape="136972.45,73347.55 136965.29,73344.18 136963.28,73342.77 136958.29,73339.39 136936.75,73324.59 136925.91,73315.95 136921.41,73311.65 136904.06,73289.36 136902.11,73287.02 136896.86,73280.16 136893.80,73275.62 136886.73,73257.31 136880.60,73240.03" disallow="tram rail_urban rail rail_electric rail_fast ship">
        <lane index="0">
            <param key="origId" value="101486395 101486394 17006670 61566223" />
        </lane>
    </edge>
    <edge id="-101520672" from="281871892" to="143569585" name="Vaakakuja" priority="3" type="highway.residential" numLanes="1" speed="8.33" shape="133367.51,75258.36 133369.55,75262.11 133373.04,75263.06 133387.02,75266.93 133429.51,75278.64 133439.19,75281.32 133452.58,75285.01 133456.69,75286.15" disallow="tram rail_urban rail rail_electric rail_fast ship">
        <lane index="0">
            <param key="origId" value="101520672 101520673 14571572" />
        </lane>
    </edge>
    <edge id="-101521565" from="1516868188" to="1516868312" name="Niittyl&#228;npolku" priority="3" type="highway.residential" numLanes="1" speed="11.11" shape="136663.55,73980.11 136661.82,73985.82 136660.77,73989.30 136659.31,73994.17 136656.41,74004.23 136651.72,74021.58" disallow="tram rail_urban rail rail_electric rail_fast ship">
        <lane index="0">
            <param key="origId" value="101521565 101521569" />
        </lane>
    </edge>
    <edge id="-101521569#0" from="1516868312" to="1516868795" name="Niittyl&#228;npolku" priority="3" type="highway.residential" numLanes="1" speed="11.11" shape="136651.72,74021.58 136649.31,74032.58 136647.02,74043.48 136646.00,74048.32 136644.89,74053.14 136639.02,74078.60 136637.08,74087.01 136632.91,74105.53 136624.02,74144.89 136627.23,74171.51 136629.77,74177.64 136632.98,74181.64 136662.88,74188.59 136667.09,74191.79 136670.41,74195.09" disallow="tram rail_urban rail rail_electric rail_fast ship">
        <lane index="0">
            <param key="origId" value="101521569 101521561 138003098" />
        </lane>
    </edge>
    <edge id="-101731771" from="1325022604" to="1359417246" name="Kr&#228;mertintie" priority="3" type="highway.residential" numLanes="1" speed="8.33" shape="136801.08,74484.82 136792.69,74478.69 136787.86,74473.43 136775.61,74463.72 136763.31,74453.75 136755.54,74445.37 136733.67,74422.13 136725.15,74414.06 136698.06,74388.27" disallow="tram rail_urban rail rail_electric rail_fast ship">
        <lane index="0">
            <param key="origId" value="101731771 121411749" />
        </lane>
    </edge>
    <edge id="-1020560683" from="9412802558" to="36475592" priority="3" type="highway.residential" numLanes="1" speed="13.89" shape="139734.80,75103.75 139700.61,75066.31 139703.42,75056.69" disallow="tram rail_urban rail rail_electric rail_fast ship">
        <lane index="0">
            <param key="origId" value="1020560683" />
        </lane>
    </edge>
    <edge id="-102278339" from="305116900" to="25709172" name="Rinne" priority="4" type="highway.unclassified" numLanes="1" speed="11.11" shape="134476.03,73295.88 134477.00,73298.75 134482.01,73299.22 134485.61,73300.94 134490.12,73314.85 134492.69,73322.75 134497.71,73338.22 134499.12,73342.55 134505.73,73362.94 134511.64,73382.75 134513.66,73388.10" disallow="tram rail_urban rail rail_electric rail_fast ship">
        <lane index="0">
            <param key="origId" value="102278339 102278342 102278349 4273629" />
        </lane>
    </edge>
    <edge id="-102282708#0" from="25692476" to="24982846" name="Ahjokuja" priority="3" type="highway.residential" numLanes="1" speed="8.33" shape="134196.65,73051.90 134199.77,73045.66 134201.66,73041.22 134203.46,73037.02 134209.63,73022.52 134211.42,73018.13 134213.46,73013.16" disallow="tram rail_urban rail rail_electric rail_fast ship">
        <lane index="0">
            <param key="origId" value="102282708 142497092 102282710" />
        </lane>
    </edge>
    <edge id="-102337972" from="1464683164" to="504321540" name="Ruosilantie" priority="10" type="highway.tertiary" numLanes="1" speed="11.11" shape="132429.98,76160.56 132444.48,76168.62 132453.02,76173.61" disallow="tram rail_urban rail rail_electric rail_fast ship">
        <lane index="0">
            <param key="origId" value="102337972" />
        </lane>
    </edge>
    <edge id="-1024008463" from="cluster_1324420753_1650738108_1650738139_1650738143_1650738144_1650738148_283694232" to="1324420598" name="Liukum&#228;entie" priority="4" type="highway.unclassified" numLanes="1" speed="8.33" shape="138938.91,75994.33 138952.50,75981.35 138955.65,75978.57 138964.60,75969.45 138994.00,75939.48 139002.30,75931.26 139010.99,75919.41 139011.53,75908.93 139011.35,75900.01 139010.13,75889.85 139006.87,75880.29 139001.84,75871.22 138993.84,75862.22 138904.64,75773.15 138896.97,75764.84" disallow="tram rail_urban rail rail_electric rail_fast ship">
        <lane index="0">
            <param key="origId" value="1024008463 117590608" />
        </lane>
        <param key="origFrom" value="1650738108" />
    </edge>
    <edge id="-10314886" from="87245640" to="87245632" name="Paimionkuja" priority="3" type="highway.residential" numLanes="1" speed="8.33" shape="134499.91,72346.99 134493.02,72334.69 134491.32,72328.81 134489.86,72321.48 134490.08,72301.21 134490.15,72294.95 134490.11,72284.28 134490.30,72247.73" disallow="tram rail_urban rail rail_electric rail_fast ship">
        <lane index="0">
            <param key="origId" value="10314886" />
        </lane>
    </edge>
    <edge id="-103302383#2" from="3426569908" to="cluster_24982798_288691804" name="Niemenm&#228;entie" priority="3" type="highway.residential" numLanes="1" speed="11.11" shape="133664.54,72740.48 133662.21,72749.54 133661.06,72755.13 133660.23,72759.47 133659.96,72761.82" disallow="tram rail_urban rail rail_electric rail_fast ship">
        <lane index="0">
            <param key="origId" value="103302383" />
        </lane>
        <param key="origTo" value="24982798" />
    </edge>
    <edge id="-10357193" from="25435543" to="29542873" name="Viertotien aukio" priority="3" type="highway.residential" numLanes="1" speed="8.33" shape="133950.11,73165.42 133940.70,73155.65 133920.21,73137.17" disallow="tram rail_urban rail rail_electric rail_fast ship">
        <lane index="0">
            <param key="origId" value="10357193" />
        </lane>
    </edge>
    <edge id="-10357406#1" from="87738633" to="76832092" name="Ilmattarentie" priority="3" type="highway.residential" numLanes="1" speed="13.89" shape="136878.30,72776.85 136881.25,72772.64 136885.74,72766.93" disallow="tram rail_urban rail rail_electric rail_fast ship">
        <lane index="0">
            <param key="origId" value="10357406" />
        </lane>
    </edge>
    <edge id="-10357406#2" from="1967406355" to="87738633" name="Ilmattarentie" priority="3" type="highway.residential" numLanes="1" speed="13.89" shape="136873.30,72784.62 136875.28,72781.45 136878.30,72776.85" disallow="tram rail_urban rail rail_electric rail_fast ship">
        <lane index="0">
            <param key="origId" value="10357406" />
        </lane>
    </edge>
    <edge id="-10363301" from="87936925" to="87936762" name="Hiilloskuja" priority="4" type="highway.unclassified" numLanes="1" speed="11.11" shape="132529.35,74572.97 132530.50,74569.83 132530.29,74566.47 132529.50,74561.40 132529.27,74560.67 132522.14,74529.72 132499.57,74461.94 132498.20,74457.75" disallow="tram rail_urban rail rail_electric rail_fast ship">
        <lane index="0">
            <param key="origId" value="10363301" />
        </lane>
    </edge>
    <edge id="-10363317" from="87937766" to="25269255" name="Takkakuja" priority="4" type="highway.unclassified" numLanes="1" speed="13.89" shape="132280.36,74651.13 132274.55,74636.36 132270.42,74624.76 132261.56,74601.87 132260.01,74597.88" disallow="tram rail_urban rail rail_electric rail_fast ship">
        <lane index="0">
            <param key="origId" value="10363317" />
        </lane>
    </edge>
    <edge id="-10363468" from="87941986" to="1688000592" name="Sikurimyllyntie" priority="4" type="highway.unclassified" numLanes="1" speed="13.89" shape="131632.01,74310.63 131635.12,74308.95 131659.43,74295.39 131661.96,74294.03 131676.72,74286.88 131680.41,74284.35 131682.67,74281.71 131684.16,74277.30 131685.17,74273.03 131685.61,74269.90 131686.49,74263.28" disallow="tram rail_urban rail rail_electric rail_fast ship">
        <lane index="0">
            <param key="origId" value="10363468" />
        </lane>
    </edge>
    <edge id="-10363538" from="87944900" to="56054404" name="Markunkuja" priority="3" type="highway.residential" numLanes="1" speed="13.89" shape="131610.27,74623.64 131601.36,74635.39 131600.41,74638.12 131596.95,74650.29 131594.80,74657.84 131592.72,74661.91 131589.60,74668.15 131586.90,74671.30 131585.50,74672.94 131580.69,74677.01 131578.03,74678.76 131574.24,74681.26 131564.03,74685.89 131556.31,74688.30" disallow="tram rail_urban rail rail_electric rail_fast ship">
        <lane index="0">
            <param key="origId" value="10363538" />
        </lane>
    </edge>
    <edge id="-10363546" from="87944964" to="56054406" name="Eljaksentie" priority="3" type="highway.residential" numLanes="1" speed="13.89" shape="131694.73,74733.65 131667.71,74732.37 131659.90,74735.13 131655.00,74736.86 131643.70,74740.86 131623.10,74748.13 131612.69,74751.80 131604.69,74754.76 131596.32,74756.79 131568.90,74762.06 131559.60,74763.60" disallow="tram rail_urban rail rail_electric rail_fast ship">
        <lane index="0">
            <param key="origId" value="10363546" />
        </lane>
    </edge>
    <edge id="-10363555" from="87945055" to="87944964" name="Joonaksenkuja" priority="3" type="highway.residential" numLanes="1" speed="13.89" shape="131707.34,74807.45 131708.34,74797.99 131708.51,74790.41 131708.22,74787.90 131707.54,74782.01 131706.85,74777.30 131705.60,74771.91 131701.29,74757.60 131697.46,74744.91 131696.43,74741.48 131695.68,74738.63 131694.73,74733.65" disallow="tram rail_urban rail rail_electric rail_fast ship">
        <lane index="0">
            <param key="origId" value="10363555" />
        </lane>
    </edge>
    <edge id="-10372364#0" from="88204914" to="88204537" name="Kornetintie" priority="3" type="highway.residential" numLanes="1" speed="8.33" shape="133206.37,73905.00 133211.07,73901.49 133227.34,73889.40 133252.72,73870.53 133293.21,73840.41 133301.33,73834.37 133330.53,73812.65 133348.80,73799.21 133351.28,73797.38 133357.03,73793.69" disallow="tram rail_urban rail rail_electric rail_fast ship">
        <lane index="0">
            <param key="origId" value="10372364" />
        </lane>
    </edge>
    <edge id="-10372364#1" from="25374930" to="88204914" name="Kornetintie" priority="3" type="highway.residential" numLanes="1" speed="8.33" shape="133069.84,74015.85 133073.80,74007.66 133075.74,74005.23 133076.79,74004.06 133130.90,73962.70 133206.37,73905.00" disallow="tram rail_urban rail rail_electric rail_fast ship">
        <lane index="0">
            <param key="origId" value="10372364" />
        </lane>
    </edge>
    <edge id="-10372376" from="88205101" to="88204914" name="Kornetinkuja" priority="3" type="highway.residential" numLanes="1" speed="8.33" shape="133177.06,73867.20 133180.12,73871.13 133201.94,73899.14 133203.07,73900.62 133206.37,73905.00" disallow="tram rail_urban rail rail_electric rail_fast ship">
        <lane index="0">
            <param key="origId" value="10372376" />
        </lane>
    </edge>
    <edge id="-10372461" from="1401708286" to="88207255" name="Muottikuja" priority="4" type="highway.unclassified" numLanes="1" speed="13.89" shape="133096.29,74088.68 133095.76,74079.33 133107.96,74039.84 133109.02,74036.41 133111.14,74029.56" disallow="tram rail_urban rail rail_electric rail_fast ship">
        <lane index="0">
            <param key="origId" value="10372461" />
        </lane>
    </edge>
    <edge id="-10373960" from="cluster_1394257722_88246818" to="25305045" name="Viinenkuja" priority="3" type="highway.residential" numLanes="1" speed="8.33" shape="132497.16,75159.30 132494.16,75152.06 132491.44,75145.26 132483.77,75125.98 132465.32,75080.43 132462.78,75074.18 132458.66,75066.67 132438.69,75029.54 132409.05,74974.42 132406.07,74968.81 132375.22,74912.75" disallow="tram rail_urban rail rail_electric rail_fast ship">
        <lane index="0">
            <param key="origId" value="10373960" />
        </lane>
        <param key="origFrom" value="88246818" />
    </edge>
    <edge id="-10374052" from="88248982" to="88246819" name="Nuolitie" priority="3" type="highway.residential" numLanes="1" speed="13.89" shape="132568.13,75307.76 132558.92,75296.63 132544.94,75270.59 132500.27,75187.48" disallow="tram rail_urban rail rail_electric rail_fast ship">
        <lane index="0">
            <param key="origId" value="10374052" />
        </lane>
    </edge>
    <edge id="-10374120" from="1395320406" to="25305038" name="Rakentajantie" priority="3" type="highway.residential" numLanes="1" speed="8.33" shape="132172.47,75404.20 132178.98,75395.35 132204.47,75378.54 132216.20,75370.64 132259.88,75344.49 132275.78,75334.93 132283.41,75328.62 132288.81,75322.47 132293.39,75313.79" disallow="tram rail_urban rail rail_electric rail_fast ship">
        <lane index="0">
            <param key="origId" value="10374120" />
        </lane>
    </edge>
    <edge id="-10377153#1" from="1395320289" to="cluster_25290639_25290648" name="Selim Lindqvistin kuja" priority="3" type="highway.residential" numLanes="1" speed="11.11" shape="131967.36,75347.44 131963.40,75351.33 131961.60,75351.89 131956.68,75352.16 131950.18,75350.85 131860.23,75329.66 131855.78,75328.34 131849.79,75324.92" disallow="tram rail_urban rail rail_electric rail_fast ship">
        <lane index="0">
            <param key="origId" value="10377153" />
        </lane>
        <param key="origTo" value="25290648" />
    </edge>
    <edge id="-10405223#0" from="88797628" to="56055421" name="Sylvesterintie" priority="3" type="highway.residential" numLanes="1" speed="13.89" shape="131731.14,75046.54 131730.32,75034.67 131730.20,75028.34 131730.99,75014.65 131732.66,75004.89 131735.84,74992.10 131739.86,74980.64 131747.58,74961.41 131748.70,74954.19" disallow="tram rail_urban rail rail_electric rail_fast ship">
        <lane index="0">
            <param key="origId" value="10405223" />
        </lane>
    </edge>
    <edge id="-10405223#1" from="88797632" to="88797628" name="Sylvesterintie" priority="3" type="highway.residential" numLanes="1" speed="13.89" shape="131762.64,75133.60 131759.09,75127.81 131753.66,75122.26 131751.26,75119.27 131746.56,75111.76 131744.09,75106.75 131740.94,75096.93 131732.41,75053.07 131731.14,75046.54" disallow="tram rail_urban rail rail_electric rail_fast ship">
        <lane index="0">
            <param key="origId" value="10405223" />
        </lane>
    </edge>
    <edge id="-10405292" from="1395320279" to="88797628" name="Suntionpolku" priority="3" type="highway.residential" numLanes="1" speed="13.89" shape="131663.87,75121.82 131662.89,75115.40 131662.59,75113.44 131664.41,75099.28 131666.20,75091.47 131667.69,75087.93 131668.75,75085.42 131671.69,75080.63 131677.80,75074.61 131689.12,75066.40 131705.62,75054.44 131709.69,75051.71 131712.44,75050.40 131722.08,75047.49 131726.54,75046.72 131731.14,75046.54" disallow="tram rail_urban rail rail_electric rail_fast ship">
        <lane index="0">
            <param key="origId" value="10405292" />
        </lane>
    </edge>
    <edge id="-10405419" from="88798990" to="56054418" name="Joulut&#228;hdentie" priority="3" type="highway.residential" numLanes="1" speed="8.33" shape="131432.57,75080.57 131545.73,75103.23 131550.11,75104.13" disallow="tram rail_urban rail rail_electric rail_fast ship">
        <lane index="0">
            <param key="origId" value="10405419" />
        </lane>
    </edge>
    <edge id="-10405686" from="1395320308" to="56055415" name="Jyrkinkuja" priority="3" type="highway.residential" numLanes="1" speed="8.33" shape="131589.23,74884.77 131588.78,74888.79 131587.77,74897.97 131589.06,74908.61 131590.92,74918.36 131593.35,74926.91 131595.75,74935.35 131596.95,74939.58 131599.30,74947.85 131601.88,74956.91 131603.38,74963.37 131604.56,74968.49" disallow="tram rail_urban rail rail_electric rail_fast ship">
        <lane index="0">
            <param key="origId" value="10405686" />
        </lane>
    </edge>
    <edge id="-10420511" from="3712542196" to="89031228" name="Kolsarinkuja" priority="3" type="highway.residential" numLanes="1" speed="11.11" shape="132126.66,76126.61 132126.39,76113.76 132126.17,76095.06 132125.42,76090.44 132123.87,76086.51 132123.84,76074.88 132122.31,75997.40 132122.26,75989.77" disallow="tram rail_urban rail rail_electric rail_fast ship">
        <lane index="0">
            <param key="origId" value="10420511" />
        </lane>
    </edge>
    <edge id="-10420618" from="1590902280" to="89033097" name="Ristipellonkuja" priority="4" type="highway.unclassified" numLanes="1" speed="13.89" shape="131929.09,76481.22 131934.01,76484.44 131948.33,76494.44 131960.11,76503.14 131966.53,76507.79" disallow="tram rail_urban rail rail_electric rail_fast ship">
        <lane index="0">
            <param key="origId" value="10420618" />
        </lane>
    </edge>
    <edge id="-10420635#1" from="89033637" to="cluster_25290608_25290615" name="Konalankuja" priority="4" type="highway.unclassified" numLanes="1" speed="8.33" shape="131621.63,76461.89 131625.55,76465.92 131649.30,76490.32 131653.44,76494.57 131664.46,76505.90 131665.64,76507.11 131672.68,76514.33" disallow="tram rail_urban rail rail_electric rail_fast ship">
        <lane index="0">
            <param key="origId" value="10420635" />
        </lane>
        <param key="origTo" value="25290615" />
    </edge>
    <edge id="-10425852" from="89133721" to="89133679" name="Purpurikuja" priority="3" type="highway.residential" numLanes="1" speed="11.11" shape="133254.74,76048.55 133285.42,75993.19 133290.00,75982.51" disallow="tram rail_urban rail rail_electric rail_fast ship">
        <lane index="0">
            <param key="origId" value="10425852" />
        </lane>
    </edge>
    <edge id="-10425858" from="1987642200" to="89133798" name="Polkkakuja" priority="3" type="highway.residential" numLanes="1" speed="11.11" shape="133337.21,76090.98 133365.71,76038.93 133366.97,76036.63 133372.86,76025.84" disallow="tram rail_urban rail rail_electric rail_fast ship">
        <lane index="0">
            <param key="origId" value="10425858" />
        </lane>
    </edge>
    <edge id="-10425883" from="89134233" to="89134185" name="Pelimanninkuja" priority="3" type="highway.residential" numLanes="1" speed="11.11" shape="133456.02,76025.14 133434.09,76013.34 133423.52,76032.68 133421.64,76036.12 133419.82,76039.44 133415.30,76047.67" disallow="tram rail_urban rail rail_electric rail_fast ship">
        <lane index="0">
            <param key="origId" value="10425883" />
        </lane>
    </edge>
    <edge id="-10426011#1" from="1671038066" to="cluster_246242355_89135194" name="Klaneettikuja" priority="4" type="highway.unclassified" numLanes="1" speed="11.11" shape="133451.71,76144.09 133462.98,76150.14 133478.78,76158.62 133481.54,76160.09 133487.18,76163.12" disallow="tram rail_urban rail rail_electric rail_fast ship">
        <lane index="0">
            <param key="origId" value="10426011" />
        </lane>
        <param key="origTo" value="89135194" />
    </edge>
    <edge id="-10426021#1" from="89135493" to="cluster_246241148_89135313" name="Kitarakuja" priority="3" type="highway.residential" numLanes="1" speed="8.33" shape="133451.64,76307.79 133445.48,76301.37 133436.61,76292.15 133429.59,76286.60" disallow="tram rail_urban rail rail_electric rail_fast ship">
        <lane index="0">
            <param key="origId" value="10426021" />
        </lane>
        <param key="origTo" value="89135313" />
    </edge>
    <edge id="-10426031#1" from="89135579" to="cluster_246241106_89135559" name="Sitrakuja" priority="3" type="highway.residential" numLanes="1" speed="11.11" shape="133386.18,76447.41 133382.85,76443.45 133349.58,76402.34 133338.83,76389.07 133334.11,76383.24 133328.67,76376.21" disallow="tram rail_urban rail rail_electric rail_fast ship">
        <lane index="0">
            <param key="origId" value="10426031" />
        </lane>
        <param key="origTo" value="89135559" />
    </edge>
    <edge id="-10426053#1" from="241125122" to="cluster_1603413101_89135043" name="Trumpettitie" priority="3" type="highway.residential" numLanes="1" speed="11.11" shape="133043.96,76380.22 133059.67,76368.96 133063.61,76368.02 133070.02,76368.80 133127.62,76389.94 133134.40,76392.43 133230.27,76426.88 133232.63,76427.73 133246.87,76432.33" disallow="tram rail_urban rail rail_electric rail_fast ship">
        <lane index="0">
            <param key="origId" value="10426053" />
        </lane>
        <param key="origTo" value="89135043" />
    </edge>