<tlLogics xmlns:xsi="http://www.w3.org/2001/XMLSchema-instance" version="1.20" xsi:noNamespaceSchemaLocation="http://sumo.dlr.de/xsd/tllogic_file.xsd">
    <tlLogic id="1329534504" type="actuated" programID="0" offset="0">
        <phase duration="38" state="rrrrGGggrrrrGGgg" minDur="5" maxDur="50" />
        <phase duration="3" state="rrrryyggrrrryygg" />
        <phase duration="6" state="rrrrrrGGrrrrrrGG" minDur="5" maxDur="50" />
        <phase duration="3" state="rrrrrryyrrrrrryy" />
        <phase duration="37" state="GGggrrrrGGggrrrr" minDur="5" maxDur="50" />
        <phase duration="3" state="yyyyrrrryyyyrrrr" />
        <param key="jam-threshold" value="30" />
    </tlLogic>
    <tlLogic id="GS_152670347" type="actuated" programID="0" offset="0">
        <phase duration="38" state="GggrrrGG" minDur="5" maxDur="50" />
        <phase duration="3" state="yggrrryy" />
        <phase duration="6" state="GGGrrrrr" minDur="5" maxDur="50" />
        <phase duration="3" state="yyyrrrrr" />
        <phase duration="37" state="rrrGGgGr" minDur="5" maxDur="50" />
        <phase duration="3" state="rrryyyyr" />
        <param key="jam-threshold" value="30" />
    </tlLogic>
    <tlLogic id="GS_226008" type="actuated" programID="0" offset="0">
        <phase duration="42" state="GgGrrr" minDur="5" maxDur="50" />
        <phase duration="3" state="yyyrrr" />
        <phase duration="42" state="rrGGGG" minDur="5" maxDur="50" />
        <phase duration="3" state="rryyyy" />
        <param key="jam-threshold" value="30" />
    </tlLogic>
    <tlLogic id="GS_24556185" type="actuated" programID="0" offset="0">
        <phase duration="42" state="GGrrr" minDur="5" maxDur="50" />
        <phase duration="3" state="yyrrr" />
        <phase duration="42" state="rrGGG" minDur="5" maxDur="50" />
        <phase duration="3" state="rryyy" />
        <param key="jam-threshold" value="30" />
    </tlLogic>
    <tlLogic id="GS_24556187" type="actuated" programID="0" offset="0">
        <phase duration="42" state="GGGrr" minDur="5" maxDur="50" />
        <phase duration="3" state="yyyrr" />
        <phase duration="42" state="rrrGG" minDur="5" maxDur="50" />
        <phase duration="3" state="rrryy" />
        <param key="jam-threshold" value="30" />
    </tlLogic>
    <tlLogic id="GS_24982821" type="actuated" programID="0" offset="0">
        <phase duration="27" state="rrrrGG" minDur="5" maxDur="50" />
        <phase duration="3" state="rrrryy" />
        <phase duration="27" state="GGGrrr" minDur="5" maxDur="50" />
        <phase duration="3" state="yyyrrr" />
        <phase duration="27" state="rrrGrr" minDur="5" maxDur="50" />
        <phase duration="3" state="rrryrr" />
        <param key="jam-threshold" value="30" />
    </tlLogic>
    <tlLogic id="GS_25495303" type="actuated" programID="0" offset="0">
        <phase duration="38" state="rrrGggGGg" minDur="5" maxDur="50" />
        <phase duration="3" state="rrryggyyy" />
        <phase duration="6" state="rrrGGGrrr" minDur="5" maxDur="50" />
        <phase duration="3" state="rrryyyrrr" />
        <phase duration="37" state="GGGrrrrrr" minDur="5" maxDur="50" />
        <phase duration="3" state="yyyrrrrrr" />
        <param key="jam-threshold" value="30" />
    </tlLogic>
    <tlLogic id="GS_26337464" type="actuated" programID="0" offset="0">
        <phase duration="41" state="GGGrr" minDur="7" maxDur="50" />
        <phase duration="4" state="yyyrr" />
        <phase duration="41" state="rrrGG" minDur="7" maxDur="50" />
        <phase duration="4" state="rrryy" />
        <param key="jam-threshold" value="30" />
    </tlLogic>
    <tlLogic id="GS_266123359" type="actuated" programID="0" offset="0">
        <phase duration="42" state="GGrr" minDur="5" maxDur="50" />
        <phase duration="3" state="yyrr" />
        <phase duration="42" state="rrGG" minDur="5" maxDur="50" />
        <phase duration="3" state="rryy" />
        <param key="jam-threshold" value="30" />
    </tlLogic>
    <tlLogic id="GS_280955781" type="actuated" programID="0" offset="0">
        <phase duration="41" state="GGGrr" minDur="7" maxDur="50" />
        <phase duration="4" state="yyyrr" />
        <phase duration="41" state="rrrGG" minDur="5" maxDur="50" />
        <phase duration="4" state="rrryy" />
        <param key="jam-threshold" value="30" />
    </tlLogic>
    <tlLogic id="GS_34770808" type="actuated" programID="0" offset="0">
        <phase duration="42" state="GgGrrr" minDur="5" maxDur="50" />
        <phase duration="3" state="yyyrrr" />
        <phase duration="42" state="rrGGGG" minDur="5" maxDur="50" />
        <phase duration="3" state="rryyyy" />
        <param key="jam-threshold" value="30" />
    </tlLogic>
    <tlLogic id="GS_60707546" type="actuated" programID="0" offset="0">
        <phase duration="42" state="GGrrrr" minDur="5" maxDur="50" />
        <phase duration="3" state="yyrrrr" />
        <phase duration="42" state="rrGGGG" minDur="5" maxDur="50" />
        <phase duration="3" state="rryyyy" />
        <param key="jam-threshold" value="30" />
    </tlLogic>
    <tlLogic id="GS_87739796" type="actuated" programID="0" offset="0">
        <phase duration="42" state="GgGrrr" minDur="5" maxDur="50" />
        <phase duration="3" state="yyyrrr" />
        <phase duration="42" state="rrGGGG" minDur="5" maxDur="50" />
        <phase duration="3" state="rryyyy" />
        <param key="jam-threshold" value="30" />
    </tlLogic>
    <tlLogic id="GS_91221899" type="actuated" programID="0" offset="0">
        <phase duration="42" state="GggrrrGGg" minDur="5" maxDur="50" />
        <phase duration="3" state="yyyrrryyy" />
        <phase duration="42" state="rrrGGgGrr" minDur="5" maxDur="50" />
        <phase duration="3" state="rrryyyyrr" />
        <param key="jam-threshold" value="30" />
    </tlLogic>
    <tlLogic id="GS_cluster_1020312048_1020312082_27470069_27470071" type="actuated" programID="0" offset="0">
        <phase duration="33" state="rrGGGggrrrrGGGGgg" minDur="5" maxDur="50" />
        <phase duration="3" state="rryyyggrrrryyyygg" />
        <phase duration="6" state="rrrrrGGrrrrrrrrGG" minDur="5" maxDur="50" />
        <phase duration="3" state="rrrrryyrrrrrrrryy" />
        <phase duration="33" state="GGrrrrrGGggGrrrrr" minDur="5" maxDur="50" />
        <phase duration="3" state="yyrrrrryyggyrrrrr" />
        <phase duration="6" state="rrrrrrrGGGGrrrrrr" minDur="5" maxDur="50" />
        <phase duration="3" state="rrrrrrryyyyrrrrrr" />
        <param key="jam-threshold" value="30" />
    </tlLogic>
    <tlLogic id="GS_cluster_1325001930_259755298_259755299" type="actuated" programID="0" offset="0">
        <phase duration="42" state="GGggrrrrGG" minDur="5" maxDur="50" />
        <phase duration="3" state="yyyyrrrryy" />
        <phase duration="42" state="rrrrGGGgGr" minDur="5" maxDur="50" />
        <phase duration="3" state="rrrryyyyyr" />
        <param key="jam-threshold" value="30" />
    </tlLogic>
    <tlLogic id="GS_cluster_1325001947_259757720_259758931" type="actuated" programID="0" offset="0">
        <phase duration="38" state="GggrrrGGg" minDur="5" maxDur="50" />
        <phase duration="3" state="yggrrryyy" />
        <phase duration="6" state="GGGrrrrrr" minDur="5" maxDur="50" />
        <phase duration="3" state="yyyrrrrrr" />
        <phase duration="37" state="rrrGGgGrr" minDur="5" maxDur="50" />
        <phase duration="3" state="rrryyyyrr" />
        <param key="jam-threshold" value="30" />
    </tlLogic>
    <tlLogic id="GS_cluster_1336069771_286760285" type="actuated" programID="0" offset="0">
        <phase duration="38" state="GGGrrrGgg" minDur="5" maxDur="50" />
        <phase duration="3" state="yyyrrrygg" />
        <phase duration="6" state="rrrrrrGGG" minDur="5" maxDur="50" />
        <phase duration="3" state="rrrrrryyy" />
        <phase duration="37" state="rrrGGGrrr" minDur="5" maxDur="50" />
        <phase duration="3" state="rrryyyrrr" />
        <param key="jam-threshold" value="30" />
    </tlLogic>
    <tlLogic id="GS_cluster_1359417232_259755292_288986961_288986966" type="actuated" programID="0" offset="0">
        <phase duration="33" state="rrrrGGGggrrrrGGgg" minDur="5" maxDur="50" />
        <phase duration="3" state="rrrryyyggrrrryygg" />
        <phase duration="6" state="rrrrrrrGGrrrrrrGG" minDur="5" maxDur="50" />
        <phase duration="3" state="rrrrrrryyrrrrrryy" />
        <phase duration="33" state="GGggrrrrrGGggrrrr" minDur="5" maxDur="50" />
        <phase duration="3" state="yyggrrrrryyggrrrr" />
        <phase duration="6" state="rrGGrrrrrrrGGrrrr" minDur="5" maxDur="50" />
        <phase duration="3" state="rryyrrrrrrryyrrrr" />
        <param key="jam-threshold" value="30" />
    </tlLogic>
    <tlLogic id="GS_cluster_1359417236_259755295" type="actuated" programID="0" offset="0">
        <phase duration="38" state="GGggrrrrGGggrrrr" minDur="5" maxDur="50" />
        <phase duration="3" state="yyggrrrryyggrrrr" />
        <phase duration="6" state="rrGGrrrrrrGGrrrr" minDur="5" maxDur="50" />
        <phase duration="3" state="rryyrrrrrryyrrrr" />
        <phase duration="37" state="rrrrGGggrrrrGGgg" minDur="5" maxDur="50" />
        <phase duration="3" state="rrrryyyyrrrryyyy" />
        <param key="jam-threshold" value="30" />
    </tlLogic>
    <tlLogic id="GS_cluster_1368959681_286760279_286760280" type="actuated" programID="0" offset="0">
        <phase duration="38" state="GggrrrrGGGg" minDur="5" maxDur="50" />
        <phase duration="3" state="yggrrrryyyy" />
        <phase duration="6" state="GGGrrrrrrrr" minDur="5" maxDur="50" />
        <phase duration="3" state="yyyrrrrrrrr" />
        <phase duration="37" state="rrrGGGgGrrr" minDur="5" maxDur="50" />
        <phase duration="3" state="rrryyyyyrrr" />
        <param key="jam-threshold" value="30" />
    </tlLogic>
    <tlLogic id="GS_cluster_1395321324_25293713_56055430" type="actuated" programID="0" offset="0">
        <phase duration="36" state="GGGgGggrrr" minDur="7" maxDur="50" />
        <phase duration="4" state="yyyyyggrrr" />
        <phase duration="6" state="rrrrGGGrrr" minDur="7" maxDur="50" />
        <phase duration="4" state="rrrryyyrrr" />
        <phase duration="36" state="GrrrrrrGGg" minDur="5" maxDur="50" />
        <phase duration="4" state="yrrrrrryyy" />
        <param key="jam-threshold" value="30" />
    </tlLogic>
    <tlLogic id="GS_cluster_1401707593_29737586_29737587" type="actuated" programID="0" offset="0">
        <phase duration="36" state="GGggrrrrGGG" minDur="7" maxDur="50" />
        <phase duration="4" state="yyggrrrryyy" />
        <phase duration="6" state="GGGGrrrrrrr" minDur="7" maxDur="50" />
        <phase duration="4" state="yyyyrrrrrrr" />
        <phase duration="36" state="rrrrGGGGrrr" minDur="5" maxDur="50" />
        <phase duration="4" state="rrrryyyyrrr" />
        <param key="jam-threshold" value="30" />
    </tlLogic>
    <tlLogic id="GS_cluster_1401708059_25238079_6646078689_6646078690" type="actuated" programID="0" offset="0">
        <phase duration="29" state="rrrrGGGggrrrrGGGgg" minDur="5" maxDur="50" />
        <phase duration="5" state="rrrryyyggrrrryyygg" />
        <phase duration="6" state="rrrrrrrGGrrrrrrrGG" minDur="5" maxDur="50" />
        <phase duration="5" state="rrrrrrryyrrrrrrryy" />
        <phase duration="29" state="GGrrrrrrrGGggrrrrr" minDur="10" maxDur="50" />
        <phase duration="5" state="yyrrrrrrryyggrrrrr" />
        <phase duration="6" state="rrGGrrrrrrrGGrrrrr" minDur="10" maxDur="50" />
        <phase duration="5" state="rryyrrrrrrryyrrrrr" />
        <param key="jam-threshold" value="30" />
    </tlLogic>
    <tlLogic id="GS_cluster_1401708084_25290556_25290563" type="actuated" programID="0" offset="0">
        <phase duration="36" state="GGggrrrGGGg" minDur="7" maxDur="50" />
        <phase duration="4" state="yyggrrryyyy" />
        <phase duration="6" state="GGGGrrrrrrr" minDur="7" maxDur="50" />
        <phase duration="4" state="yyyyrrrrrrr" />
        <phase duration="36" state="rrrrGGgGrrr" minDur="5" maxDur="50" />
        <phase duration="4" state="rrrryyyyrrr" />
        <param key="jam-threshold" value="30" />
    </tlLogic>
    <tlLogic id="GS_cluster_141443890_24982818_311691375_311691377" type="actuated" programID="0" offset="0">
        <phase duration="57" state="GGgrrrrGGGG" minDur="5" maxDur="75" />
        <phase duration="3" state="yygrrrryyyy" />
        <phase duration="6" state="GGGrrrrrrrr" minDur="5" maxDur="50" />
        <phase duration="3" state="yyyrrrrrrrr" />
        <phase duration="37" state="rrrGGGgGrrr" minDur="5" maxDur="50" />
        <phase duration="3" state="rrryyyyyrrr" />
        <param key="jam-threshold" value="30" />
    </tlLogic>
    <tlLogic id="GS_cluster_1460980074_322078004" type="actuated" programID="0" offset="0">
        <phase duration="38" state="GggrrrGGg" minDur="5" maxDur="50" />
        <phase duration="3" state="yggrrryyy" />
        <phase duration="6" state="GGGrrrrrr" minDur="5" maxDur="50" />
        <phase duration="3" state="yyyrrrrrr" />
        <phase duration="37" state="rrrGGgGrr" minDur="5" maxDur="50" />
        <phase duration="3" state="rrryyyyrr" />
        <param key="jam-threshold" value="30" />
    </tlLogic>
    <tlLogic id="GS_cluster_1462994795_246637225_32011532" type="actuated" programID="0" offset="0">
        <phase duration="38" state="GGGGGGgrr" minDur="5" maxDur="50" />
        <phase duration="3" state="yyyyyygrr" />
        <phase duration="6" state="rrrrGGGrr" minDur="5" maxDur="50" />
        <phase duration="3" state="rrrryyyrr" />
        <phase duration="37" state="GrrrrrrGG" minDur="5" maxDur="50" />
        <phase duration="3" state="yrrrrrryy" />
        <param key="jam-threshold" value="30" />
    </tlLogic>
    <tlLogic id="GS_cluster_148083349_257098801_257098805_26400201" type="actuated" programID="0" offset="0">
        <phase duration="38" state="rrrGGGgg" minDur="5" maxDur="50" />
        <phase duration="3" state="rrryyygg" />
        <phase duration="6" state="rrrrrGGG" minDur="5" maxDur="50" />
        <phase duration="3" state="rrrrryyy" />
        <phase duration="37" state="GGgGrrrr" minDur="5" maxDur="50" />
        <phase duration="3" state="yyyyrrrr" />
        <param key="jam-threshold" value="30" />
    </tlLogic>
    <tlLogic id="GS_cluster_1499965316_7950412210" type="actuated" programID="0" offset="0">
        <phase duration="33" state="GggrrrGGg" minDur="13" maxDur="50" />
        <phase duration="6" state="yggrrryyy" />
        <phase duration="6" state="GGGrrrrrr" minDur="13" maxDur="50" />
        <phase duration="6" state="yyyrrrrrr" />
        <phase duration="33" state="rrrGGgGrr" minDur="5" maxDur="50" />
        <phase duration="6" state="rrryyyyrr" />
        <param key="jam-threshold" value="30" />
    </tlLogic>
    <tlLogic id="GS_cluster_150927896_161500703_25811319_76463639" type="actuated" programID="0" offset="0">
        <phase duration="38" state="rrrrGGGGGgg" minDur="5" maxDur="50" />
        <phase duration="3" state="rrrryyyyygg" />
        <phase duration="6" state="rrrrrrrGGGG" minDur="5" maxDur="50" />
        <phase duration="3" state="rrrrrrryyyy" />
        <phase duration="37" state="GGGgGrrrrrr" minDur="5" maxDur="50" />
        <phase duration="3" state="yyyyyrrrrrr" />
        <param key="jam-threshold" value="30" />
    </tlLogic>
    <tlLogic id="GS_cluster_1520144342_4067904621" type="actuated" programID="0" offset="0">
        <phase duration="38" state="rrrrGGggrrrrGGgg" minDur="5" maxDur="50" />
        <phase duration="3" state="rrrryyggrrrryygg" />
        <phase duration="6" state="rrrrrrGGrrrrrrGG" minDur="5" maxDur="50" />
        <phase duration="3" state="rrrrrryyrrrrrryy" />
        <phase duration="37" state="GGggrrrrGGggrrrr" minDur="5" maxDur="50" />
        <phase duration="3" state="yyyyrrrryyyyrrrr" />
        <param key="jam-threshold" value="30" />
    </tlLogic>
    <tlLogic id="GS_cluster_1520422091_165940804_165940810_315992157_9302189617" type="actuated" programID="0" offset="0">
        <phase duration="38" state="GGgGggrrr" minDur="5" maxDur="50" />
        <phase duration="3" state="yyyyggrrr" />
        <phase duration="6" state="rrrGGGrrr" minDur="5" maxDur="50" />
        <phase duration="3" state="rrryyyrrr" />
        <phase duration="37" state="GrrrrrGGg" minDur="5" maxDur="50" />
        <phase duration="3" state="yrrrrryyy" />
        <param key="jam-threshold" value="30" />
    </tlLogic>
    <tlLogic id="GS_cluster_1520521902_1520521908_25502110_25502111" type="actuated" programID="0" offset="0">
        <phase duration="33" state="rrrrGGGggrrrrGGGgg" minDur="5" maxDur="50" />
        <phase duration="3" state="rrrryyyggrrrryyygg" />
        <phase duration="6" state="rrrrrrrGGrrrrrrrGG" minDur="5" maxDur="50" />
        <phase duration="3" state="rrrrrrryyrrrrrrryy" />
        <phase duration="33" state="GGggrrrrrGGggrrrrr" minDur="5" maxDur="50" />
        <phase duration="3" state="yyggrrrrryyggrrrrr" />
        <phase duration="6" state="rrGGrrrrrrrGGrrrrr" minDur="5" maxDur="50" />
        <phase duration="3" state="rryyrrrrrrryyrrrrr" />
        <param key="jam-threshold" value="30" />
    </tlLogic>
    <tlLogic id="GS_cluster_1522930708_259755289_277838314_277838315" type="actuated" programID="0" offset="0">
        <phase duration="38" state="GggrrrGGg" minDur="5" maxDur="50" />
        <phase duration="3" state="yggrrryyy" />
        <phase duration="6" state="GGGrrrrrr" minDur="5" maxDur="50" />
        <phase duration="3" state="yyyrrrrrr" />
        <phase duration="37" state="rrrGGgGrr" minDur="5" maxDur="50" />
        <phase duration="3" state="rrryyyyrr" />
        <param key="jam-threshold" value="30" />
    </tlLogic>
    <tlLogic id="GS_cluster_1590893198_1590893200_1590893202_1590893206" type="actuated" programID="0" offset="0">
        <phase duration="36" state="GGggrrrrGGGGg" minDur="7" maxDur="50" />
        <phase duration="4" state="yyggrrrryyyyy" />
        <phase duration="6" state="GGGGrrrrrrrrr" minDur="7" maxDur="50" />
        <phase duration="4" state="yyyyrrrrrrrrr" />
        <phase duration="36" state="rrrrGGGgGrrrr" minDur="5" maxDur="50" />
        <phase duration="4" state="rrrryyyyyrrrr" />
        <param key="jam-threshold" value="30" />
    </tlLogic>
    <tlLogic id="GS_cluster_176207550_34074478_9495398366" type="actuated" programID="0" offset="0">
        <phase duration="37" state="GGGgGGgrrrr" minDur="5" maxDur="50" />
        <phase duration="3" state="yyyyyygrrrr" />
        <phase duration="6" state="rrrrGGGrrrr" minDur="5" maxDur="50" />
        <phase duration="3" state="rrrryyyrrrr" />
        <phase duration="1" state="rrrrrrrrrrr" />
        <phase duration="36" state="GrrrrrrGGGg" minDur="5" maxDur="50" />
        <phase duration="3" state="yrrrrrryyyy" />
        <phase duration="1" state="rrrrrrrrrrr" />
        <param key="jam-threshold" value="30" />
    </tlLogic>
    <tlLogic id="GS_cluster_180771701_2320597085_54001332" type="actuated" programID="0" offset="0">
        <phase duration="36" state="rrrrrGGGGGGg" minDur="7" maxDur="50" />
        <phase duration="4" state="rrrrryyyyyyg" />
        <phase duration="6" state="rrrrrrrrGGGG" minDur="7" maxDur="50" />
        <phase duration="4" state="rrrrrrrryyyy" />
        <phase duration="36" state="GGGGgGrrrrrr" minDur="5" maxDur="50" />
        <phase duration="4" state="yyyyyyrrrrrr" />
        <param key="jam-threshold" value="30" />
    </tlLogic>
    <tlLogic id="GS_cluster_196484406_32010804" type="actuated" programID="0" offset="0">
        <phase duration="42" state="GGgrrrGGg" minDur="5" maxDur="50" />
        <phase duration="3" state="yyyrrryyy" />
        <phase duration="42" state="rrrGGgGrr" minDur="5" maxDur="50" />
        <phase duration="3" state="rrryyyyrr" />
        <param key="jam-threshold" value="30" />
    </tlLogic>
    <tlLogic id="GS_cluster_2317953001_2317953003_25446983" type="actuated" programID="0" offset="0">
        <phase duration="37" state="GGGGgGGggrrrr" minDur="5" maxDur="50" />
        <phase duration="3" state="yyyyyyyggrrrr" />
        <phase duration="6" state="rrrrrGGGGrrrr" minDur="5" maxDur="50" />
        <phase duration="3" state="rrrrryyyyrrrr" />
        <phase duration="37" state="GrrrrrrrrGGGg" minDur="5" maxDur="50" />
        <phase duration="3" state="yrrrrrrrryyyy" />
        <phase duration="1" state="rrrrrrrrrrrrr" />
        <param key="jam-threshold" value="30" />
    </tlLogic>
    <tlLogic id="GS_cluster_246786770_25269235_25269274" type="actuated" programID="0" offset="0">
        <phase duration="37" state="GGGgGGggrrrr" minDur="5" maxDur="50" />
        <phase duration="3" state="yyyyyyggrrrr" />
        <phase duration="6" state="rrrrGGGGrrrr" minDur="5" maxDur="50" />
        <phase duration="3" state="rrrryyyyrrrr" />
        <phase duration="37" state="rrrrrrrrGGGG" minDur="5" maxDur="50" />
        <phase duration="3" state="rrrrrrrryyyy" />
        <phase duration="1" state="rrrrrrrrrrrr" />
        <param key="jam-threshold" value="30" />
    </tlLogic>
    <tlLogic id="GS_cluster_24982794_25095364_288691807_288691810" type="actuated" programID="0" offset="0">
        <phase duration="33" state="rrrrGGGggrrrrGGGGgg" minDur="5" maxDur="50" />
        <phase duration="3" state="rrrryyyggrrrryyyygg" />
        <phase duration="6" state="rrrrrrrGGrrrrrrrrGG" minDur="5" maxDur="50" />
        <phase duration="3" state="rrrrrrryyrrrrrrrryy" />
        <phase duration="33" state="GGggrrrrrGGggrrrrrr" minDur="5" maxDur="50" />
        <phase duration="3" state="yyggrrrrryyggrrrrrr" />
        <phase duration="6" state="rrGGrrrrrrrGGrrrrrr" minDur="5" maxDur="50" />
        <phase duration="3" state="rryyrrrrrrryyrrrrrr" />
        <param key="jam-threshold" value="30" />
    </tlLogic>
    <tlLogic id="GS_cluster_24982798_288691804" type="actuated" programID="0" offset="0">
        <phase duration="42" state="GGggrrrGGg" minDur="5" maxDur="50" />
        <phase duration="3" state="yyyyrrryyy" />
        <phase duration="42" state="rrrrGGgGrr" minDur="5" maxDur="50" />
        <phase duration="3" state="rrrryyyyrr" />
        <param key="jam-threshold" value="30" />
    </tlLogic>
    <tlLogic id="GS_cluster_25005819_25095365_6261282328" type="actuated" programID="0" offset="0">
        <phase duration="38" state="GGggrrrrGGGGg" minDur="5" maxDur="50" />
        <phase duration="3" state="yyggrrrryyyyy" />
        <phase duration="6" state="GGGGrrrrrrrrr" minDur="5" maxDur="50" />
        <phase duration="3" state="yyyyrrrrrrrrr" />
        <phase duration="37" state="rrrrGGGgGrrrr" minDur="5" maxDur="50" />
        <phase duration="3" state="rrrryyyyyrrrr" />
        <param key="jam-threshold" value="30" />
    </tlLogic>
    <tlLogic id="GS_cluster_25216698_27540795_9284077087" type="actuated" programID="0" offset="0">
        <phase duration="42" state="GggrrrrGGg" minDur="5" maxDur="50" />
        <phase duration="3" state="yyyrrrryyy" />
        <phase duration="42" state="rrrGGGgGrr" minDur="5" maxDur="50" />
        <phase duration="3" state="rrryyyyyrr" />
        <param key="jam-threshold" value="30" />
    </tlLogic>
    <tlLogic id="GS_cluster_25253811_25253816_269666529" type="actuated" programID="0" offset="0">
        <phase duration="33" state="GGGggrrrrGGGggrrrr" minDur="5" maxDur="50" />
        <phase duration="3" state="yyyggrrrryyyggrrrr" />
        <phase duration="6" state="rrrGGrrrrrrrGGrrrr" minDur="5" maxDur="50" />
        <phase duration="3" state="rrryyrrrrrrryyrrrr" />
        <phase duration="33" state="rrrrrGGggrrrrrGGgg" minDur="5" maxDur="50" />
        <phase duration="3" state="rrrrryyggrrrrryygg" />
        <phase duration="6" state="rrrrrrrGGrrrrrrrGG" minDur="5" maxDur="50" />
        <phase duration="3" state="rrrrrrryyrrrrrrryy" />
        <param key="jam-threshold" value="30" />
    </tlLogic>
    <tlLogic id="GS_cluster_25269229_25269230" type="actuated" programID="0" offset="0">
        <phase duration="42" state="rrrGGgGGgg" minDur="5" maxDur="50" />
        <phase duration="3" state="rrryyyyyyy" />
        <phase duration="42" state="GGgGrrrrrr" minDur="5" maxDur="50" />
        <phase duration="3" state="yyyyrrrrrr" />
        <param key="jam-threshold" value="30" />
    </tlLogic>
    <tlLogic id="GS_cluster_25269233_25269234" type="actuated" programID="0" offset="0">
        <phase duration="42" state="rrGGGGGgg" minDur="5" maxDur="50" />
        <phase duration="3" state="rryyyyyyy" />
        <phase duration="42" state="GgGrrGGrr" minDur="5" maxDur="50" />
        <phase duration="3" state="yyyrryyrr" />
        <param key="jam-threshold" value="30" />
    </tlLogic>
    <tlLogic id="GS_cluster_25290576_25290585_25290594_25290605" type="actuated" programID="0" offset="0">
        <phase duration="31" state="rrrrrGGGGggrrrrrGGGGgg" minDur="7" maxDur="50" />
        <phase duration="4" state="rrrrryyyyggrrrrryyyygg" />
        <phase duration="6" state="rrrrrrrrrGGrrrrrrrrrGG" minDur="7" maxDur="50" />
        <phase duration="4" state="rrrrrrrrryyrrrrrrrrryy" />
        <phase duration="31" state="GGGggrrrrrrGGGggrrrrrr" minDur="5" maxDur="50" />
        <phase duration="4" state="yyyggrrrrrryyyggrrrrrr" />
        <phase duration="6" state="rrrGGrrrrrrrrrGGrrrrrr" minDur="5" maxDur="50" />
        <phase duration="4" state="rrryyrrrrrrrrryyrrrrrr" />
        <param key="jam-threshold" value="30" />
    </tlLogic>
    <tlLogic id="GS_cluster_25290633_289556239_668591623" type="actuated" programID="0" offset="0">
        <phase duration="41" state="GGrrrGGGG" minDur="7" maxDur="50" />
        <phase duration="4" state="yyrrryyyy" />
        <phase duration="41" state="rrGGGGrrr" minDur="7" maxDur="50" />
        <phase duration="4" state="rryyyyrrr" />
        <param key="jam-threshold" value="30" />
    </tlLogic>
    <tlLogic id="GS_cluster_25290660_25290670" type="actuated" programID="0" offset="0">
        <phase duration="38" state="rrrrGGggrrrrGGgg" minDur="5" maxDur="50" />
        <phase duration="3" state="rrrryyggrrrryygg" />
        <phase duration="6" state="rrrrrrGGrrrrrrGG" minDur="5" maxDur="50" />
        <phase duration="3" state="rrrrrryyrrrrrryy" />
        <phase duration="37" state="GGggrrrrGGggrrrr" minDur="5" maxDur="50" />
        <phase duration="3" state="yyyyrrrryyyyrrrr" />
        <param key="jam-threshold" value="30" />
    </tlLogic>
    <tlLogic id="GS_cluster_25293697_25293699_25293731" type="actuated" programID="0" offset="0">
        <phase duration="27" state="GGggrrrrGGggrrrr" minDur="7" maxDur="50" />
        <phase duration="6" state="yyggrrrryyggrrrr" />
        <phase duration="6" state="rrGGrrrrrrGGrrrr" minDur="7" maxDur="50" />
        <phase duration="6" state="rryyrrrrrryyrrrr" />
        <phase duration="27" state="rrrrGGrrrrrrGGgg" minDur="13" maxDur="50" />
        <phase duration="6" state="rrrryyrrrrrryygg" />
        <phase duration="6" state="rrrrrrGGrrrrrrGG" minDur="13" maxDur="50" />
        <phase duration="6" state="rrrrrryyrrrrrryy" />
        <param key="jam-threshold" value="30" />
    </tlLogic>
    <tlLogic id="GS_cluster_25305017_25759202_36815165_36815223" type="actuated" programID="0" offset="0">
        <phase duration="29" state="rrrrrGGGGggrrrrrGGGGgg" minDur="7" maxDur="50" />
        <phase duration="5" state="rrrrryyyyggrrrrryyyygg" />
        <phase duration="6" state="rrrrrrrrrGGrrrrrrrrrGG" minDur="7" maxDur="50" />
        <phase duration="5" state="rrrrrrrrryyrrrrrrrrryy" />
        <phase duration="29" state="GGGrrrrrrrrGGGggrrrrrr" minDur="10" maxDur="50" />
        <phase duration="5" state="yyyrrrrrrrryyyggrrrrrr" />
        <phase duration="6" state="rrrGGrrrrrrrrrGGrrrrrr" minDur="10" maxDur="50" />
        <phase duration="5" state="rrryyrrrrrrrrryyrrrrrr" />
        <param key="jam-threshold" value="30" />
    </tlLogic>
    <tlLogic id="GS_cluster_25305094_25305095_25305096" type="actuated" programID="0" offset="0">
        <phase duration="40" state="GGGGggrrrrGGGg" minDur="7" maxDur="50" />
        <phase duration="5" state="yyyyyyrrrryyyy" />
        <phase duration="40" state="rrrrrrGGGgGrrr" minDur="10" maxDur="50" />
        <phase duration="5" state="rrrrrryyyyyrrr" />
        <param key="jam-threshold" value="30" />
    </tlLogic>
    <tlLogic id="GS_cluster_25374940_281039330" type="actuated" programID="0" offset="0">
        <phase duration="42" state="GggrrrGGg" minDur="5" maxDur="50" />
        <phase duration="3" state="yyyrrryyy" />
        <phase duration="42" state="rrrGGgGrr" minDur="5" maxDur="50" />
        <phase duration="3" state="rrryyyyrr" />
        <param key="jam-threshold" value="30" />
    </tlLogic>
    <tlLogic id="GS_cluster_25811042_25811055" type="actuated" programID="0" offset="0">
        <phase duration="38" state="GGGggrrrrGGGGg" minDur="5" maxDur="50" />
        <phase duration="3" state="yyyggrrrryyyyy" />
        <phase duration="6" state="GGGGGrrrrrrrrr" minDur="5" maxDur="50" />
        <phase duration="3" state="yyyyyrrrrrrrrr" />
        <phase duration="37" state="rrrrrGGGgGrrrr" minDur="5" maxDur="50" />
        <phase duration="3" state="rrrrryyyyyrrrr" />
        <param key="jam-threshold" value="30" />
    </tlLogic>
    <tlLogic id="GS_cluster_25930494_315738661_315738676_315739196" type="actuated" programID="0" offset="0">
        <phase duration="33" state="GGGggrrrrGGggrrrr" minDur="5" maxDur="50" />
        <phase duration="3" state="yyyggrrrryyggrrrr" />
        <phase duration="6" state="rrrGGrrrrrrGGrrrr" minDur="5" maxDur="50" />
        <phase duration="3" state="rrryyrrrrrryyrrrr" />
        <phase duration="33" state="rrrrrGGggrrrrGGgg" minDur="5" maxDur="50" />
        <phase duration="3" state="rrrrryyggrrrryygg" />
        <phase duration="6" state="rrrrrrrGGrrrrrrGG" minDur="5" maxDur="50" />