<routes xmlns:xsi="http://www.w3.org/2001/XMLSchema-instance" xsi:noNamespaceSchemaLocation="http://sumo.dlr.de/xsd/routes_file.xsd">

    <vehicle id="rs_c006_i000_0" depart="0.00" departLane="best" departSpeed="max">
        <route edges="-117656067#1 78343351 78343358#1 78049389 117654814#0 30098521#0 282875039 29498965 24407716 17221484 24429378 78650992 130637088 34733054#3 89224837 61279427#1 61279428 28918340#0 61281941 30326720#0 30326720#1 30326722 28105135 38674850 148927038 138670798 38674848 24977186 28230831 36912211 36912210-AddedOnRampEdge 36912210 25153030 38674845 35355373 38674844 25153039#0 25153041 40801556 25153043#0 30263381 26348751#0 142497101#0 34294088#0 78535795 -78535801#0 -78535798#1 -26349563#1 26349564#0 26349564#2 104147692 668611390#0 30471451 722724110 125809074#0 125809093 -301852089 -96598498 96559139 -94124135 308586583#0 308586583#1 -191201120 -96202732 -96559142 1061462397#0 1061462397#1 1061462397#2 -96560051 -96560046 -217557860#0 4468804#0 4468804#1 4468804#2 4468804#3" />
    </vehicle>
    <vehicle id="rs_c006_i000_1" depart="0.14" departLane="best" departSpeed="max">
        <route edges="51340266#0 51340266#1 211119798#1 9639748 331599262 5235877 61579093#1 653986865 35066121#0 58422626 329359060 58422627 333411021 5235813 30602645 4287469 35669033 24436437 607800580 24436439 301710105 301710114 5234175 243683604 60921784 78714802 417810022 60921782 330026282 41880603 330026281 27126564 41880105 41880107 330029416 29509745 4236838 330029412#0 35779496 115994692#0 35779497 830186675 35779498#0 575234416 609622921#0 30926950#1 609622919#0 609622918#0 609622920#0 609622917#0 574874055#0 428898718 -299530143 -27769792#2 -27769792#1 -27769792#0 -5369182 35880366 27769773" />
    </vehicle>
    <vehicle id="rs_c006_i000_2" depart="0.28" departLane="best" departSpeed="max">
        <route edges="50541464#0 50541458#0 328739175#0 30692829 73028104 362987788 39404314#0 25361629 147749318 41844429 149576263 314159876 328836208 4254918 42010817 58421025 42010818 30528971 328836213 138914231#0 26815115 60769757 328836206-AddedOnRampEdge" />
    </vehicle>
    <vehicle id="rs_c006_i000_4" depart="0.57" departLane="best" departSpeed="max">
        <route edges="205323307 45362475#0 30140154 89746911#0 30290576 285207564 30290213 30290214 60776452 100720307 132933320 132932901 132932902 25561765 25561761 25561691 16817445 25497861 26186005 4258763 131271491 131271496 24429368 24429368-AddedOffRampEdge 4974626 24429369 60613342 4974625 4974631 119051540#1 25920220 26421690 200275930 26421692#0 26421692#1 -34734675#2 -288287382 -288287380 -113586399#0" />
    </vehicle>
    <vehicle id="rs_c006_i000_5" depart="0.71" departLane="best" departSpeed="max">
        <route edges="25497859 365078231 25561690 25561760 25561763 93363186 132932900 365078233 206222939 30140157 354079392 24485848 4387437 26344500 132044545 5065275 30681776 39163043 206112920 206112920-AddedOffRampEdge 17967521 17967516 77340597 24429566 77340596 23207529 178272679 32620523#0 41861087 10621055 35029083 41861086" />
    </vehicle>
    <vehicle id="rs_c006_i000_6" depart="0.85" departLane="best" departSpeed="max">
        <route edges="-63113207 56253837 -369150317#1 -369150317#0 -132047178 -132047180 132047189 -852319713#2 -852319713#1 -852319713#0 852319714#0 852319716 -95102185 -290500795 136864087 231380372 301132114 220927112#0 220927112#1 231380369 24399535 24399534 369178237#1 84744387#1 84744384#1 29498972#0 57726376 26187757#0 26187757#1 118864086 60684996 26185622 26185622-AddedOffRampEdge 24404948 287565433 17243585 26185946 25497858 25497859 365078231 25561690 25561760 25561763 93363186 132932900 365078233 126301867 43302995 148673609 30290212 203827938 56700453 24373362 25604394 130877556 130877554 26490770 285124107#0 285124107#1 285124109 4260299#0 30289379 30289399 29971915 44572563 30682490" />
    </vehicle>
    <vehicle id="rs_c006_i000_7" depart="0.99" departLane="best" departSpeed="max">
        <route edges="316612601 316612600 132797916 37287165 108955790 4680379 61044976 12384604 61044975 145335484-AddedOnRampEdge 145335484 35313963 132797926 4376381" />
    </vehicle>
    <vehicle id="rs_c006_i000_8" depart="1.13" departLane="best" departSpeed="max">
        <route edges="609622916#0 609622915#0 574874057#0 574874056#0 574874058 575234415 35779499 35779500 609622932 41880104 97918186 41880099 41880100 24336144 330016493 292953404 4236268 8136174#0 43136453 243683880 125684042#0 93670626 624417041 102332988#0 38455334 38455335 335091838 125565903 38455338 26368687 530282939 530282938 34905760#0 34905760#1 34905760#2 5234400" />
    </vehicle>
    <vehicle id="rs_c006_i000_9" depart="1.28" departLane="best" departSpeed="max">
        <route edges="25497858 25497859 365078231 25561690 25561760 25561763 93363186 132932900 365078233 206222939 30140157 354079392 24485848 59359422 86171350 4248708 4248708-AddedOffRampEdge 43134631 541611403 541611404 296083903 541611405#0 298494083#0 377252475 5061723 132044513 132044521 5061724 132044508" />
    </vehicle>
    <vehicle id="rs_c006_i000_10" depart="1.42" departLane="best" departSpeed="max">
        <route edges="60769751 115757343 108954251 17309096 39222890 808307302 5374990 17244796 26187588 132816267 132816269 24404952 24404945 26185622 26185622-AddedOffRampEdge 24404948 287565433 17243585 26185946 25497858 25497859 365078231 25561690 25561760 25561763 93363186 132932900 365078233 206222939 30140157 354079392 24485848 4387437 26344500 132044545 5065275 30681776 39163043 206112920 206112920-AddedOffRampEdge 17967521 17967516 77340597 24429566 77340596 23207529 178272679 30261872#0 432056841#0 30261871#0 217548736 217548737 5053245#0 193116296 61981598#1 34587265#0" />
    </vehicle>
    <vehicle id="rs_c006_i000_12" depart="1.70" departLane="best" departSpeed="max">
        <route edges="30293516#0 195033565 30293593 -48422483 -25828889 25701483 993021671 77129791 -26490664 26490665 132932907 29508381 132932903 29508377 30289255 60706263 29508376 25561765 25561761 25561691 16817445 25497861 26186005 4258763 131271491 131271496 24429368 24429368-AddedOffRampEdge 24429364 201115549 133109576 30093953 30093951 133109577 86790295 86790295-AddedOffRampEdge 4494663 26499900" />
    </vehicle>
    <vehicle id="rs_c006_i000_13" depart="1.84" departLane="best" departSpeed="max">
        <route edges="50738088#0 26187757#1 58423646 17244015#1 60684995 30140146 4952731-AddedOnRampEdge 4952731 24404956 132816268 132816266 30603092 30603092-AddedOffRampEdge 17244798 459817266 17245257 17245257-AddedOffRampEdge 413303757 24436437 607800580 24436439 301710105 301710114 5234175 417810038 30914194 30914195#0 30914193 93670632 102332987#0 43136453 243683880 125684042#0 93670626 624417041 102332988#0 38455341#0 243759680 190981790#0 93670633#1 20826774 190981787 126449241 34178668 654803144 237399745 321100881 321100880 126140564 30001653 126499972#2 126140557#0 707213207#0 707213180#0 707213180#4 707213179" />
    </vehicle>
    <vehicle id="rs_c006_i000_14" depart="1.99" departLane="best" departSpeed="max">
        <route edges="156341823 125604900 125604932 125604925" />
    </vehicle>
    <vehicle id="rs_c006_i000_15" depart="2.13" departLane="best" departSpeed="max">
        <route edges="-197062846 -197062862#1 -197062862#0 -197062858#0 53818482 34693045 4686426 28820272 4686430 28820277 28820278 28820132 4683048 4683048-AddedOffRampEdge 24528282 30093946 369171991 224330324 30093947 30093949 307436994 86790297 307436998 133109575 27204012 30093954 133109574 571601808 24429370 5241393 5241393-AddedOffRampEdge 5241636 5241636-AddedOffRampEdge 25542790 17243585 26185946 25497858 25497859 365078231 25561690 25561760 5240598 29508375 60706276 131131453 131131455 131131448 132932906 285128122 -26473011 -60706279 -296235503 285128164 -85735350 285128155 -4260317 4260317 285128161 285128143 285128148 285128170 4260325 196537058" />
    </vehicle>
    <vehicle id="rs_c006_i000_16" depart="2.27" departLane="best" departSpeed="max">
        <route edges="42186079#0 37861609#1 56045242 41880095 41880096 755140611 41880100 24336144 330016493 292953404 132795767 26344446 459818361 132795766 78714806 132817970 132817969 24436443 149022592 370772239#1-AddedOnRampEdge" />
    </vehicle>
    <vehicle id="rs_c006_i000_17" depart="2.41" departLane="best" departSpeed="max">
        <route edges="132932900 365078233 126301867 43302995 148673609 30290576 285207564 30290213 30290214 60776452 100720307 132933320 132932901 132932902 25561765 25561761 25561691 16817445 25497861 26186005 25497860 17243588 18314420 24404779 24404873 118864088 60684994 26187891 301372680#0 144246396#1 118864086 60684996 26185622 26185622-AddedOffRampEdge 24404948 287565433 17243585" />
    </vehicle>
    <vehicle id="rs_c006_i000_18" depart="2.55" departLane="best" departSpeed="max">
        <route edges="992260434#1 -992260434#1 -992260434#0 939526275#2 374118561 441119068 643081181#1 -202624701 -132855663#1 -132855663#0 132855667 35263268#0 35263268#1 35263268#2 692596125 675768578 132855676 -5231189 5231102 132855670 132855668 30385523 35262698 4753638 58651920 30603089 132855651 132855653 207297484 132814895 30603090 30602645 4287469 4389845 149022591 4389848 24436396 206174911 17244796 26187588 132816267 132816269 24404952 118865759 58423620 26187880#0 26187880#1 -57726376 -29498972#1 -84744395 -84744384#0 -84744387#0 -369178237#0 24399513 231380370 33826301 290500795 132047181 852319715 95102182 852319716" />
    </vehicle>
    <vehicle id="rs_c006_i000_19" depart="2.70" departLane="best" departSpeed="max">
        <route edges="25656195#1 125420255 125420262 25562093 125420260 125604913 125604917 125604902 125604895 125604895-AddedOffRampEdge 15806578 -39407601#0 -41926223#1 -41926223#0 41926222 65634041#0 65634041#1 -141059003#1 -141059003#0" />
    </vehicle>
    <vehicle id="rs_c006_i000_20" depart="2.84" departLane="best" departSpeed="max">
        <route edges="30602644 78631423 132814897 207295788 5231195 30385521 58651887 30603086 35262698 4753638 58651920 30603089 132855651 132855653 207297484 132814895 30603090 30602645 24436415 24436416 78631421 39222889 18647496 115757332 4254916 60769741 30528972#0 26368316 39139273 1010508081 285150555#0 285150555#1 71360393 -71360393" />
    </vehicle>
    <vehicle id="rs_c006_i000_21" depart="2.98" departLane="best" departSpeed="max">
        <route edges="264086641 -264086641 -295416118#0 625143267 427614362 328172370#1 328172372#3 142151674#1 142151674#2 30914644#0 30914644#1 132855655#0 132855659#0 349527575 132855661#0 132855661#3 952667833 132855658#0 45409283 16610322 58651884 132855653 207297484 132814895 30603090 30602645 4287469 4389845 149022591 4389848 24436396 206174911 17244796 26187588 132816267 132816269 24404952 24404945 26185622 26185622-AddedOffRampEdge 4280386 4280386-AddedOffRampEdge 107348023 24429366 28771939 24429368 24429368-AddedOffRampEdge 24429364 201115549 133109576 4683037 4683037-AddedOffRampEdge 30093955 60613289 35479015 4343655 993029185 34670544 27203189 25827075 133109579 133109581#0 4497475#0 160274071 27204014-AddedOnRampEdge 27204014 30093954 133109574" />
    </vehicle>
    <vehicle id="rs_c006_i000_22" depart="3.12" departLane="best" departSpeed="max">
        <route edges="-4235795 4235770#0 4235770#1 754897397 4235769#1 754897398#0 30282210#0 140315941#0 140315941#1 140315941#2 140315941#3 140315941#4 519763761 40339969 40339967#0 40339965 37861614 42186084 37861611 37861610 42186073 42186076 56045235#0 56045242 41880095 41880096 755140611 41880100 24336144 330016493 292953404 132795767 26344446 459818361 132795766 78714806 132817970 4952789 17246382 60771162#0 30436422#0 132817964 132817963 132817966 5231438#0 14434302 331292452 14571552 137388192#0 137388192#1 137388192#2 50044720#1 -50044720#1" />
    </vehicle>
    <vehicle id="rs_c006_i000_25" depart="3.55" departLane="best" departSpeed="max">
        <route edges="125351177#2 -125351177#2 -125351177#1 -125351177#0 301079504#1 301079501 35962802 125351124#0 360725418#0 360725418#1 134239747#0 134239747#1 29498975 125351121 35721073 125351208 60613344 5379672 26344529 24429370 5241393 5241393-AddedOffRampEdge 25555291 24404873 24404885 4952731-AddedOnRampEdge 4952731" />
    </vehicle>
    <vehicle id="rs_c006_i000_26" depart="3.69" departLane="best" departSpeed="max">
        <route edges="24436396 206174911 17244796 5375201 60752383 116350099 -803406962 -333508967 60752374#0 459838433 50433609 5375300 60752388 25555193 30603092 30603092-AddedOffRampEdge 17244798 459817266 17245257 17245257-AddedOffRampEdge 413303757 24436437 607800580 24436439 301710105 301710114 5234175 243683604 60921784 78714802 417810022 60921782 330026282 41880603 330026281 27126564 41880105 41880107 330029416 29509745 4236838 330029412#0 35779496 115994692#0 35779497 830186675 35779498#0 575234416 609622921#0 30926950#1 609622919#0 609622918#0 609622920#0 609622917#0 574874055#0 574874053#0 574874053#3 574874047#0 484230584 670988472 427684400#0 427684400#1 427683769 670988470#0 427683770#0 427683759#1 703967796 703967795 703967794 703967771#0 703967793 703967792 703967791 703967790 -703967790 703967784 -703967792 703967783#0" />
    </vehicle>
    <vehicle id="rs_c006_i000_27" depart="3.83" departLane="best" departSpeed="max">
        <route edges="26349723 26349689 609759377 25617821 343482005 102276835#0 30471452#0 26349747#0 984011718 133104420#0 103302381 26349563#0 78535798#0 78535798#2 142497098 30956035#0 26348749 35873189 25153046#0 35391376 40801557 25153048 28241504 34036603 30690511 463124698 37076917 37076917-AddedOffRampEdge 8102841 160327699 28105134 28231152-AddedOnRampEdge 28231152 24977184 234899446 25600862 38674849 25600863 37972616 41242441#0 37523549#0 37523549#2 86714180#0 86714180#1 24424238#0 30261169 34733055 30955886#0 61279423#3 61498122#0 5237397 24429380 24429380-AddedOffRampEdge 29498960" />
    </vehicle>
    <vehicle id="rs_c006_i000_28" depart="3.97" departLane="best" departSpeed="max">
        <route edges="28717883#0 38455846 30140141 28717817 23739394 4728023 35062429#4 35062429#5 35062429#0 4293565 330343922 50433681 301710105 301710114 5234175 243683604 60921784 78714802 417810022 60921782 330026282 41880603 330026281 27126564 41880105 41880107 330029416 29509745 4236838 330029412#0 35779496 115994692#0 35779497 830186675 35779498#0 575234416 609622921#0 30926950#1 609622919#0 609622918#0 609622920#0 609622917#0 574874055#0 574874053#0 574874053#3 574874047#0 484230584 670988472 427684400#0 427684400#1 427683769 670988470#0 427683770#0" />
    </vehicle>
    <vehicle id="rs_c006_i000_29" depart="4.11" departLane="best" departSpeed="max">
        <route edges="30290576 285207564 30290213 30290214 60776452 100720307 132933320 132932901 132932902 25561765 25561761 25561691 16817445 25497861 26186005 4258763 131271491 131271496 24429368 24429368-AddedOffRampEdge 24429364 201115549 133109576 30093953 30093951 133109577 86790295 86790295-AddedOffRampEdge 4494663 26499900 30093945 17288506 28820131 28820135 28820269 28820271 2294284 17284763 28820309 30618512 30618512-AddedOffRampEdge 5014813 5014813-AddedOffRampEdge 45378696 37286792 61075357#0 37286914#0 57358332 64133430 336468196#0 58555174#0 58555163 5437297#1 345121302#0 345121302#1" />
    </vehicle>
    <vehicle id="rs_c006_i000_30" depart="4.26" departLane="best" departSpeed="max">
        <route edges="-4419881#1 -4419882#1 412747877#0 -161855577 751864345 4226182 4223732 -80305916 80305901#0 41832785#1 160308970 44529219 80305904 22918530 330192679 4470777 26349723 26349689 609759377 25617821 343482005 102276835#0 30471452#0 26349747#0 38198189#0 126131488#0 126131456#0 81177995 30001652#0 34178669 654803136 34178664 34178665#0 34178666 654803145 126142082#0 80228049 217694415#0 346591957 443551693 125565915#0 102332986#0 363017594 125565909 102332984#0 102332991 430284252 102332458#0 102332458#2 427173722 102332412#0 43232012" />
    </vehicle>
    <vehicle id="rs_c006_i000_31" depart="4.40" departLane="best" departSpeed="max">
        <route edges="28777365 30618351 141971499 141971499-AddedOffRampEdge 28799776 50323067 132044508 24485966 23415674 132933319 132933319-AddedOffRampEdge 16823290 60776450 32761248#0 30290213 32761250 24373185 205316947 27289882 123964080#0 183402015 29508719 95334659 207709517 30293519#0 26469126#0 4700847#0 30141802#0 30141803 5042530#0 183394154 183394145 183394146 207709518 183392368 183394141 5042166 183394144 183394147 183394142 37309092 122056552 993021844 993021843 70954254 -95335960 95335964 183394246 183394245 -285332786 285332788 123082709 37309093 285332784 40349296 -345835137 4643191 345973898#0 -345973898#0" />
    </vehicle>
    <vehicle id="rs_c006_i000_32" depart="4.54" departLane="best" departSpeed="max">
        <route edges="26368687 530282939 530282938 34905760#0 34905760#1 34905760#2 5234400 26368688 38455339 335091843#0 102332986#0 363017594 125565909 102332984#0 102332991 5234157 132795766 78714806 132817970 132817969 24436443 24436442 24436396 206174911 17244796 5375201 60752383 116350099 -803406962 -333508967 60752374#0 58422328 58422327 5375097#1 60752381 55587097 55587099 607800579 24436432 30602644 78631423 132814897 207295788 5231195 30385521 58651887 30603086 35262698 4753638 58651920 30603089 132855651 132855653 207297484 132814895 30603090" />
    </vehicle>
    <vehicle id="rs_c006_i000_33" depart="4.68" departLane="best" departSpeed="max">
        <route edges="30603087 5231102 132855670 132855668 30385523 35262698 4753638 58651920 30603089 132855651 132855653 207297484 132814895 30603090 30602645 4287469 4389845 149022591 4389848 24436396 206174911 17244796 5375201 60752383 116350099 -803406962 -333508967 60752374#0 459838433 50433609 5375300 60752388 -60752388" />
    </vehicle>
    <vehicle id="rs_c006_i000_34" depart="4.82" departLane="best" departSpeed="max">
        <route edges="36912244#0 -36912244#0 132855662 132855664 675768578 132855676 -5231189 5231102 132855670 132855668 30385523 35262698 4753638 58651920 30603089 132855651 132855653 207297484 132814895 30603090 30602645 4287469 4389845 149022591 4389848 24436396 206174911 17244796 26187588 132816267 132816269" />
    </vehicle>
    <vehicle id="rs_c006_i000_35" depart="4.96" departLane="best" departSpeed="max">
        <route edges="10508974#1 -333156356 -10508719 212690608#3 183512804 183512801#0 183512801#1 58422330 55304897 58422329 459838433 50433609 5375300 60752388 25555193 30603092 30603092-AddedOffRampEdge 17244798 459817266 17245257 17245257-AddedOffRampEdge 413303757 24436437 607800580 24436439 301710105 301710114 5234175 243683604 60921784 78714802 417810022 60921782 330026282 41880603 330026281 27126564 41880105 41880107 330029416 29509745 4236838 330029412#0 35779496 115994692#0 35779497 830186675 35779498#0 575234416 609622921#0 30926950#1 609622919#0 609622918#0 609622920#0 609622917#0 574874055#0 574874053#0 574874050#0 574874051#0" />
    </vehicle>
    <vehicle id="rs_c006_i000_36" depart="5.11" departLane="best" departSpeed="max">
        <route edges="53522499#2 222510311#0 222510311#1 222510307 53380714#1 161568921#0 5231162#0 35371968 260692230 188639868 188639870 58187422 58187421 188639869 346917471#0 46481100 346918615 132855672#0 45409283 16610322 58651884 132855653 207297484 132814895 30603090 30602645 4287469 35669033 24436437 607800580 24436439 301710105 301710114 5234175 243683604 60921784 78714802 417810022 60921782 330026282 41880603 330026281" />
    </vehicle>
    <vehicle id="rs_c006_i000_37" depart="5.25" departLane="best" departSpeed="max">
        <route edges="-10426057 -10426053#2 -10426053#1 10426000 51340803#0 51340803#1 166533651 166533654#1 30529010#1 -16345605#1 -16345605#0 -16345612#0 -183247519#0 183247520 183247521#1 23739395 35031218#0 35031220 35062429#0 4293565 330343922 50433681 301710105 301710114 5234175 243683604 60921784 78714802 417810022 60921782 330026282 25362151 97918194 751941988 330016503 40339967#3 32473673 -519757363 519757366 -4238153#1 -4238153#0 4238106 674068355 674068352 679022418 30243615 183090203 183090213 183090199 183090214 183090218 183090200 183090207 754609713 182504352#0 182504352#1 -210994638#4 -210994638#2 140315919 35672793#0 4235677#1 122634135#1 122634135#2 122634135#3 122634135#4 122634135#5 122634135#6 122634135#7 122634135#8 220362700#0 220362700#1 8028300#1 -8028300#1" />
    </vehicle>
    <vehicle id="rs_c006_i000_38" depart="5.39" departLane="best" departSpeed="max">
        <route edges="30140146 4952731-AddedOnRampEdge 4952731 24404956 132816268 132816266 30603092 30603092-AddedOffRampEdge 17244798 459817266 17245257 17245257-AddedOffRampEdge 17245261 301710121 149022591 4389848 24436396 206174911 17244796 26187588 132816267 132816269 24404952 24404945 26185622 26185622-AddedOffRampEdge 4280386 4280386-AddedOffRampEdge 107348023 24429366 28771939 24429368 24429368-AddedOffRampEdge 4974626 24429369 60613342 4974625 4974631 119051540#1 25920220 26421690 200275930 26421692#0 26421692#1 -34734675#2 -34734675#0 -196886051#0 -34734674#3 -34734674#2 -34734674#1 -34734674#0 -306671688#0 -200077555#2 -111720726#0 -111720720 117099156#1 30786474" />
    </vehicle>
    <vehicle id="rs_c006_i000_39" depart="5.53" departLane="best" departSpeed="max">
        <route edges="17243585 26185946 25497858 25497859 365078231 5240346 26186313 751142299#0 29508366 29508367 4376439 35777389 35777388 25561691 16817445 25497861 26186005 25497860 17243588 18314420 24404779 24404873 24404885 4952731-AddedOnRampEdge 4952731 24404956 132816268" />
    </vehicle>
    <vehicle id="rs_c006_i000_40" depart="5.67" departLane="best" departSpeed="max">
        <route edges="188649959 364583085 93672775 96718348#0 96718347 133113957#0 133113956 123429081#0 190980638#1 123429085#0 133114633 364198084#0 93670632 102332987#0 4236267#0 26344446 459818361 132795766 78714806 132817970 132817969 24436443 149022592 370772239#1-AddedOnRampEdge 370772239#1 24436416 78631421 39222889 18647496 115757332" />
    </vehicle>
    <vehicle id="rs_c006_i000_41" depart="5.82" departLane="best" departSpeed="max">
        <route edges="132816267 132816269 24404952 118865759 58423620 58423646 17244015#1 60684995 30140146 4952731-AddedOnRampEdge 4952731 24404956 132816268 132816266 30603092 30603092-AddedOffRampEdge 17244798 459817266 17245257 17245257-AddedOffRampEdge 413303757 24436437 607800580 24436439 301710105 301710114 5234175 243683604 60921784 78714802 417810022 60921782 330026282 25362151 97918194 751941988 330016503 40339967#3 32473673 -519757363 519757366 -4238153#1 -4238153#0 4238106 674068355 674068352 679022418 30243615 183090203 183090213 183090199 183090214 183090218 183090200 183090207 183090197#0 183090197#2 183090201 183090217 183090204 183090212 674217729#0 674217729#1 674217729#2 95418173 183090205 521024520 521024519 185618842#0 -754609686#0" />
    </vehicle>
    <vehicle id="rs_c006_i000_42" depart="5.96" departLane="best" departSpeed="max">
        <route edges="298633616 35313963 132797926 4376381 326205810 132044528 4375990 4375990-AddedOffRampEdge 5061722 132044536 132044552 4248708 4248708-AddedOffRampEdge 43134631 541611403 541611404 296083903 541611405#0 43134638#0 669950069 669950068 669950067 161014729 43134629 370089006 793948161 793948159" />
    </vehicle>
    <vehicle id="rs_c006_i000_43" depart="6.10" departLane="best" departSpeed="max">
        <route edges="24404779 24404873 24404885 4952731-AddedOnRampEdge 4952731 24404956 132816268 132816266 30603092 30603092-AddedOffRampEdge 17244798 459817266 17245257 17245257-AddedOffRampEdge 413303757 24436437 607800580 5231289 60771161 50433683 23739392 -30140142 177861018 139124541#0 29712058 5231274" />
    </vehicle>
    <vehicle id="rs_c006_i000_44" depart="6.24" departLane="best" departSpeed="max">
        <route edges="-4238104 -182503667#0 182503668#1 754609739#0 183090198 674217724 -183090218 183090208 -183090199 183090211 -183090203 183090215 30243328#0 30243328#1 30243328#2 183089699 4238153#0 4238153#1 519757361 519757363 40339968 674068349 674068356 40339967#0 40339965 37861614 42186084 37861611 37861610 42186073 42186076 56045235#0 56045242 41880095 41880096 755140611 41880100 24336144 330016493 292953404 4236268 8136174#0 102332458#2 427173722 102332412#0 43232012 123427231#0 223401059#0 123429084 145732305#1 133114349 96718342 30587323#0 133113961 133114348 133113960#0 133113954 133113827 93968890 93968868#0 104374237 116943414#0 133113816 116943400#2 93968875 35262684#0 129249170#0 -125591013 125590998 125591001 129249166#1 -151875832#2 -151875832#1 -151875832#0 -7918124#8 46596602 46596597#0 46596869" />
    </vehicle>
    <vehicle id="rs_c006_i000_45" depart="6.38" departLane="best" departSpeed="max">
        <route edges="703967796 703967795 703967794 703967771#0 -703967771#1 -703967794 703967781 -703967796 427683763 38438996#3 427683766 670988473 428894620 484230582#0 670988475#0 737881150#0 574874050#0 574874051#0 574874044#1 574874043#0 428898724 609622916#0 609622915#0 574874057#0 574874056#0 574874058 575234415 35779499 35779500 609622932 41880104 97918186 41880099 41880100 24336144 330016493 292953404" />
    </vehicle>
    <vehicle id="rs_c006_i000_46" depart="6.53" departLane="best" departSpeed="max">
        <route edges="156341823-AddedOnRampEdge 156341823 125604900 29546527 -15806587#0 -39407601#0 -41926223#1 -41926223#0 41926222 65634041#0 65634041#1 -141059003#1 -141059003#0 141058999 23123487 141058995 41920464 41920463#1 41920463#2 41920463#3 41920463#4 32651814#0 -32651814#0" />
    </vehicle>
    <vehicle id="rs_c006_i000_47" depart="6.67" departLane="best" departSpeed="max">
        <route edges="96718348#0 96718347 133113957#0 133113956 123429081#0 190980638#1 123429085#0 133114633 364198084#0 93670632 102332987#0 4236267#0 26344446 459818361 132795766 78714806 132817970 132817969 24436443 24436442 24436396 206174911 17244796 26187588 132816267 132816269 24404952 118865759 58423620 26187880#0 26187880#1 -57726376 -29498972#1 -84744395 -84744384#0 -84744387#0 -369178237#0 24399513 231380370 33826301 290500795 132047181 852319715 95102182 96809695#1 96809697 -96809693#0 -96809693#1" />
    </vehicle>
    <vehicle id="rs_c006_i000_48" depart="6.81" departLane="best" departSpeed="max">
        <route edges="24436439 301710105 301710114 5234175 243683604 60921784 78714802 417810022 60921782 330026282 25362151 97918194 751941988 330016503 40339967#3 674068350 674068349 674068356 40339967#0 40339965 37861614 42186084 37861611 37861610 42186073 42186076 56045235#0 56045242 41880095 41880096 755140611 41880100 24336144 330016493" />
    </vehicle>
    <vehicle id="rs_c006_i000_49" depart="6.95" departLane="best" departSpeed="max">
        <route edges="-122529104#2 122529104#2 122529104#3 122529104#4 -95937728#1 -95937728#0 -118869285 26187755#0 17244015#1 60684995 30140146 4952731-AddedOnRampEdge 4952731 24404956 132816268 132816266 30603092 30603092-AddedOffRampEdge 17244798 459817266 17245257 17245257-AddedOffRampEdge 17245261 301710121 149022591 4389848 24436396 206174911 17244796" />
    </vehicle>
    <vehicle id="rs_c006_i000_50" depart="7.09" departLane="best" departSpeed="max">
        <route edges="-220368974 220368974 33786979 220368967#1 643081181#1 -202624701 -132855663#1 -132855663#0 132855667 35263268#0 35263268#1 35263268#2 692596125 675768578 132855676 -5231189 5231102 132855670 132855668 30385523 35262698 4753638 58651920 30603089 132855651 132855653 207297484 132814895 30603090 30602645 4287469 4389845 149022591 4389848 24436396 206174911 17244796 26187588 132816267 132816269 24404952 24404945 26185622 26185622-AddedOffRampEdge 4280386 4280386-AddedOffRampEdge 107348023 24429366 28771939 24429368 24429368-AddedOffRampEdge 4974626 24429369 60613342 4974625 58425476#0 58425476#1 34151622 34151623 4974629 -26344524 26344523 305318211 5379672 26344529" />
    </vehicle>
    <vehicle id="rs_c006_i000_51" depart="7.23" departLane="best" departSpeed="max">
        <route edges="133109575 27204012 30093954 133109574 571601808 24429370 5241393 5241393-AddedOffRampEdge 5241636 5241636-AddedOffRampEdge 25542790 17243585 26185946 25497858 25497859 365078231 25561690 25561760 25561763" />
    </vehicle>
    <vehicle id="rs_c006_i000_52" depart="7.38" departLane="best" departSpeed="max">
        <route edges="609622919#0 609622915#0 574874057#0 574874056#0 574874058 575234415 35779499 35779500 609622932 41880104 97918186 41880099 41880100 24336144 330016493 292953404 132795767 26344446 459818361 132795766 78714806 132817970 4952789 17246382 60771162#0 29712058 5231274" />
    </vehicle>
    <vehicle id="rs_c006_i000_53" depart="7.52" departLane="best" departSpeed="max">
        <route edges="-42793238#0 -42793238#1 -98158886#0 -117654819#1 -117654819#0 78343358#1 78049389 232177529#1 -232177528 117654808 117654824#0 4393080#1 55903960 189140122 131271487 24407747 24429358 24428931 24428931-AddedOffRampEdge 26192899 25497858 25497859 365078231 25561690 25561760 25561763 93363186 132932900 365078233 206222939 30140157 354079392 24485848 4387437 26344500 132044545 5065275 30681776 39163043 206112920 206112920-AddedOffRampEdge" />
    </vehicle>
    <vehicle id="rs_c006_i000_54" depart="7.66" departLane="best" departSpeed="max">
        <route edges="-58422627 58422628 35066121#2 132814904 -30602646 -333259059 -333333512 -5235818 5235836 78631423 132814897 207295788 5231195 30385521 58651887 30603086 35262698 30603088 6844890 132855677#0 45409282 337799752 6845343 -188639867 58187420 346831798#2 257036638#0 35672809 188644999#0 125068621#0 160565087#0" />
    </vehicle>
    <vehicle id="rs_c006_i000_55" depart="7.80" departLane="best" departSpeed="max">