<routes xmlns:xsi="http://www.w3.org/2001/XMLSchema-instance" xsi:noNamespaceSchemaLocation="http://sumo.dlr.de/xsd/routes_file.xsd">

    <vehicle id="rs_c002_i001_0" depart="0.00" departLane="best" departSpeed="max">
        <route edges="-5235967#0 -220370226 -329359058 132814905 35066121#6 35066121#7 35066121#0 58422626 329359060 58422627 333411021 5235813 30602645 4287469 35669033 24436437 607800580 24436439 301710105 301710114" />
    </vehicle>
    <vehicle id="rs_c002_i001_1" depart="4.23" departLane="best" departSpeed="max">
        <route edges="156341823-AddedOnRampEdge 156341823 125604900" />
    </vehicle>
    <vehicle id="rs_c002_i001_2" depart="8.45" departLane="best" departSpeed="max">
        <route edges="574521949 377252475 5061723 132044513 132044521 5061724 132044508 24485966 23415674 132933319 132933319-AddedOffRampEdge 16823290 60776450 32761248#0 30140154 89746911#0 30140156#0 43302994 30140157 354079392 24485848 59359422 86171350 4248708 4248708-AddedOffRampEdge 377252476 529393426 132031246-AddedOnRampEdge 132031246 529393428 132031219 35399454#0 35355947 27125765 27125766 132031234 43547478#0 43547481 43547483 43547485 132031251 4261915 30250831#0 35360077#0 30250832 30250833#0 30261506 27125470 159819762 30250964 26420761 514488464 35360074-AddedOnRampEdge 35360074 124880141 6268850 85248807 60744439 85248806 697761858 131240776 131240780 30471895 4349961 30472287 639244852#0 325067614#0 194345825 130707392 886647544 183056113 130707383 -130707391 133911495" />
    </vehicle>
    <vehicle id="rs_c002_i001_3" depart="12.68" departLane="best" departSpeed="max">
        <route edges="-16875468 213132380 39077769 24428921 29498967 264975792 264975794 30016271 131271494 117654832#0 117654832#0-AddedOffRampEdge 117654832#1 117654829 24407716 17221484 24429378 78650992 130637088 34733054#3 89224837 61279427#1 61279428 28918340#0 61281941 30326720#0 30326720#1 30326722 28105135 38674850 148927038 138670798 38674848 24977186 28230831 36912211 36912210-AddedOnRampEdge 36912210 25153030 38674845 35355373 38674844 25153039#0 25153041 40801556 25153043#0 30263381 26348751#0 142497101#0 34294088#0 78535795 -78535801#0 -78535798#1 -26349563#1 26349564#0 26349564#2 104147692 668611390#0 30471451 722724110 125809074#0 29688693 94107486 -98873592 4233517#0" />
    </vehicle>
    <vehicle id="rs_c002_i001_4" depart="16.90" departLane="best" departSpeed="max">
        <route edges="-219758417 219758418#1 42542477#1 42542468 42542478 51974833 217366332 -217366336 -217366335#0 51974832#0 59348297 183347503 195033595 26469123 160278599 218078641 160278597 160278598 29508713 29508714 993021669 993021668 30293593 -48422483 -25828889 25701483 993021671 77129791 -26490664 26490665 132932907 29508381 132932903 29508377 30289255 60706263 29508376 25561765 25561761 25561691 16817445 25497861 26186005 4258763 131271491 131271496 24429368 24429368-AddedOffRampEdge 24429364 201115549 133109576 30093953 30093951 133109577 86790295 86790295-AddedOffRampEdge 984079182 30093948 4494683 26421927 5053266 17442613 35069344 60613209 58577200#0 26422113 53818477#0 42808307#0 -34693047#3 -34693047#2 -34693047#1 34693048#0 34693049 -43619491 43619487 238877502 46483439#0 46483439#1 -8421981#4 -10783275 -10783083#0 10783083#0" />
    </vehicle>
    <vehicle id="rs_c002_i001_5" depart="21.13" departLane="best" departSpeed="max">
        <route edges="158881337 17435045 4261876 158881335 732171359 17435047 30528580 105532967 156934264 17435049 17435044 351247164 23228990 131271090 442600425 349747645 301424563 27125214#0 30258297 4726444 134894767#0 139917003#0 130769717#0 30288455 130769716#1 232003007#0 83903571 232003008 83903572 184152103#0 30148213 1012523266 28638377 1012523267 1012523270 30528502 4253183 28638258 710545423#0 35148625#0 30528462 35148626#0 123340307#0 35148617 194850239#0 -132403035#2 -123341417 14476103 123403649#0 24467093#0 315732563#1 181011173 23939098 14476105 286143738 286143735" />
    </vehicle>
    <vehicle id="rs_c002_i001_6" depart="25.35" departLane="best" departSpeed="max">
        <route edges="95334659 207709517 30293516#0 37833047#0 30293514#0 205315052 205315053 205315054 -44038490 183402013#0 -27289882 -265232860 -24373185 26344407 205323307 45362475#0 30140154 89746911#0 30140156#0 43302994 30140157 354079392 24485848 59359422 86171350 4248708 4248708-AddedOffRampEdge 377252476 529393426 132031246-AddedOnRampEdge 132031246 529393428 132031219 17248853#0 31756460 35399453 127608299 4786671 125535365 125535370 -116697670 -116697672#1 -967369434 -116697668#0 285468255 285468257" />
    </vehicle>
    <vehicle id="rs_c002_i001_7" depart="29.58" departLane="best" departSpeed="max">
        <route edges="-5051737 -129901059 -4682949#4 -4682949#3 -4682949#2 -4682949#1 -4682949#0 944997711 993027475 26451030 305322869#0 -4343664 -993027799 27204688 94689758#0 34261692#0 34670544 27203189 25827075 133109579 133109581#0 4497475#0 160274071 27204014-AddedOnRampEdge 27204014 30093954 133109574 571601808 24429370 5241393 5241393-AddedOffRampEdge 25555291 24404873 118864088 60684994 26187891 301372680#0 26187879 118869285 57726663 95937728#1 95937728#2 24423403#7 24423403#8 24423403#9 24423403#10 125351131" />
    </vehicle>
    <vehicle id="rs_c002_i001_8" depart="33.80" departLane="best" departSpeed="max">
        <route edges="30603092-AddedOffRampEdge 17244798 459817266 17245257 17245257-AddedOffRampEdge 413303757 24436437 607800580 24436439 301710105 301710114 5234175 243683604 60921784 78714802 417810022 60921782 330026282 41880603 330026281 27126564 41880105 41880107 330029416 29509745 4236838 330029412#0 35779496 115994692#0 35779497 830186675 35779498#0 575234416 609622921#0 30926950#1 609622919#0 609622918#0 609622920#0 609622917#0 574874055#0 428898718" />
    </vehicle>
    <vehicle id="rs_c002_i001_9" depart="38.03" departLane="best" departSpeed="max">
        <route edges="17435049 17435044 351247164 23228990 131271090 442600425 442600527 516552945 18380431 34586968 25601475 132576240 28903675 28903697#0 30258153#0 39342194 51156526#0 35030125 61454770#1 263469196 61268841#0 606108430 606108428" />
    </vehicle>
    <vehicle id="rs_c002_i001_10" depart="42.25" departLane="best" departSpeed="max">
        <route edges="-103302383#2 103302381 26349563#0 78535798#0 78535798#2 142497098 30956035#0 26348749 35873189 25153046#0 35391376 40801557 25153048 28241504 34036603 30690511 463124698 37076917 37076917-AddedOffRampEdge 8102841 160327699 28105134 28231152-AddedOnRampEdge 28231152 24977184 234899446 25600862 38674849 25600863 37972616 41242441#0 37523549#0 37523549#2 86714180#0 86714180#1 24424238#0 61282209#0 206355020 24445013 30933839#0 76043672#1 73990212#1 32873885#0 54119871 101492761 332676699 368900600#2 28903699 61188121#1 30258153#0 39342194" />
    </vehicle>
    <vehicle id="rs_c002_i001_11" depart="46.48" departLane="best" departSpeed="max">
        <route edges="145732305#1 133114349 96718342 133113957#0 133113956 123429081#0 190980638#1 123429085#0 133114633 364198084#0 93670632 102332987#0 4236267#0 26344446 459818361 132795766 78714806 132817970 132817969 24436443 24436442 24436396 206174911 17244796 26187588 132816267 132816269 24404952 118865759 58423620 26187880#0 26187880#1 -57726376 -29498972#1 -84744395 -84744384#0 -84744387#0 -369178237#0 24399513 231380370 33826301 290500795 132047181" />
    </vehicle>
    <vehicle id="rs_c002_i001_12" depart="50.70" departLane="best" departSpeed="max">
        <route edges="131271491 131271496 24429368 24429368-AddedOffRampEdge 4974626 24429369 60613342 4974625 58425476#0 58425476#1 34151622 34151623 4974629 -26344524 26344523 305318211 5379672 26344529 24429370 24429363 24429362 5237387 117654832#0 117654832#0-AddedOffRampEdge 117654832#1 117654829 24407716" />
    </vehicle>
    <vehicle id="rs_c002_i001_13" depart="54.93" departLane="best" departSpeed="max">
        <route edges="-79885356#0 -235378181 -5067761 42557003 42557004 44731929 258892124#1 76178992#1 29688716 34588356 76168986#0 34588355#0 206350041 4817620#0 60681550 24429561 39163044 172879174 172879174-AddedOffRampEdge 28777365 30618351 141971499 141971499-AddedOffRampEdge 28799776 50323067 132044508 24485966 23415674 132933319 132933319-AddedOffRampEdge 23415675 100720307 132933320 132932901 132932902 25561765 25561761 25561691 16817445 25497861 26186005 25497860 17243588 18314420 24404779 24404873 24404885 4952731-AddedOnRampEdge 4952731 24404956 132816268 132816266 30603092 30603092-AddedOffRampEdge 17244798 459817266 17245257" />
    </vehicle>
    <vehicle id="rs_c002_i001_14" depart="59.15" departLane="best" departSpeed="max">
        <route edges="1000746450#3 464117270#0 17434668#0 52990034#0 52990034#3 892377262 30528713 17434665#0 159306556 34587985 95948545 225662323 24428177 156934264 17435049 17435044 351247164 23228990 131271090 442600425 349747645 301424563 27125214#0 30258297 4726444 134894767#0 139917003#0 130769717#0 30288455 130769716#1 232003007#0 83903571 232003008 83903572 184152103#0 30148213 1012523266 28638377 1012523267 1012523270 30528502 4253183 28638258 710545423#0 35148625#0 30528462 35148626#0 35148619" />
    </vehicle>
    <vehicle id="rs_c002_i001_15" depart="63.38" departLane="best" departSpeed="max">
        <route edges="-89700113 -285328352#1 -285328352#0 285328354 69906540 -26707859 26707858 30290678 93479923 676304435 30290611 -77375796 -93479925#0 285208610#0 -849819996 -189188899 285207575 -89697123 285207576 -32787686 -285207565 285207566 285207568 285207570 -374886389 30141434#0 30140154 89746911#0 30140156#0 43302994 30140157 354079392 24485848 59359422 5061726 26344503 43301701 25656130 25656131 25656131-AddedOffRampEdge 410000949 235669581 136939698" />
    </vehicle>
    <vehicle id="rs_c002_i001_16" depart="67.61" departLane="best" departSpeed="max">
        <route edges="574874044#1 574874043#0 428898724 609622916#0 609622915#0 574874057#0 574874056#0 574874058 575234415 35779499 35779500 609622932 41880104 97918186 41880099 41880100 24336144 330016493 292953404 4236268 8136174#0 102332458#2 427173722 102332412#0 43232012 123427231#0 223401059#0 123429084 145732305#1 133114349 96718342 30587326#0 133113949" />
    </vehicle>
    <vehicle id="rs_c002_i001_17" depart="71.83" departLane="best" departSpeed="max">
        <route edges="25656130 25656131 25656131-AddedOffRampEdge 410000954 235669582 235669582-AddedOffRampEdge 4877205 160075314 287764297 30681775 61352822 287253795 30681771 4882233 61352824 30681773 125420259 5061709 25656192 4376381 326205810 132044528 4375990 4375990-AddedOffRampEdge 5061722 132044536 132044552 4248708 4248708-AddedOffRampEdge 377252476 529393426 132031246-AddedOnRampEdge 132031246 529393428 132031219 35399454#0 35355947 27125765 27125766 132031234 43547478#0 43547481 43547483 43547485 132031251 4261915 30250831#0 35360077#0 30250832 30250833#0 30261506 27125470 159819762 30250964 26420761 514488464 35360074-AddedOnRampEdge 35360074 124880141 6268850 85248807 60744439 85248806 267130262 37726331#0 53355166 159213342 891868407 6268844 60744434 124879190 124879189 124879189-AddedOffRampEdge 35360073 514488460 38906267" />
    </vehicle>
    <vehicle id="rs_c002_i001_18" depart="76.06" departLane="best" departSpeed="max">
        <route edges="301710114 5234175 243683604 60921784 78714802 417810022 60921782 330026282 41880603 330026281 27126564 41880105 41880107 330029416 29509745 4236838 330029412#0 35779496 115994692#0 35779497 830186675 35779498#0 575234416 609622921#0 30926950#1 609622919#0 609622918#0 609622920#0 609622917#0 574874055#0 574874044#1 574874043#0" />
    </vehicle>
    <vehicle id="rs_c002_i001_19" depart="80.28" departLane="best" departSpeed="max">
        <route edges="-50738089#0 -50738088#2 26187757#1 58423646 17244015#1 60684995 30140146 4952731-AddedOnRampEdge 4952731 24404956 132816268 132816266 30603092 30603092-AddedOffRampEdge 17244798 459817266 17245257 17245257-AddedOffRampEdge 413303757 24436437 607800580 24436439 301710105 301710114 5234175 243683604 60921784 78714802 417810022 60921782 330026282 25362151 97918194 751941988 330016503 40339967#3 674068350 674068349 674068356 40339967#0 40339965 37861614 42186084 37861611 37861610 42186073 42186076 56045235#0 56045242 41880095 41880096 755140611 41880100 24336144 330016493 292953404 132795767" />
    </vehicle>
    <vehicle id="rs_c002_i001_20" depart="84.51" departLane="best" departSpeed="max">
        <route edges="-57726375#1 57726376 26187757#0 26187757#1 58423646 17244015#1 60684995 30140146 4952731-AddedOnRampEdge 4952731 24404956 132816268 132816266 30603092 30603092-AddedOffRampEdge 17244798 459817266 17245257 17245257-AddedOffRampEdge 413303757 24436437 607800580 24436439 301710105 301710114 5234175 417810038 30914194 30914195#0 30914193 93670632 102332987#0 43136453 243683880 125684042#0 93670626 624417041 102332988#0 38455341#0 243759680" />
    </vehicle>
    <vehicle id="rs_c002_i001_21" depart="88.73" departLane="best" departSpeed="max">
        <route edges="28231152-AddedOnRampEdge 28231152 24977184 234899446 25600862 38674849 25600863 37972616 41242441#0 37523549#0 30326720#1 30326722 28105135 38674850 148927038 138670798 38674848 24977186 28230831 36912211 36912210-AddedOnRampEdge 36912210 25153030 38674845 35355373 38674844 25153039#0 25153041 40801556 25153043#0 30263381 26348751#0 142497101#0 29688689#0 29688690 79851744#0 79851744#2 78535774 78535784 34178664 34178665#0 34178666 654803146 34178668 654803144 237399745 321100881 321100880 126140564 30001653 126499972#2 126140557#0 707213207#0 707213180#0 707213180#4 707213179 707213178#0" />
    </vehicle>
    <vehicle id="rs_c002_i001_22" depart="92.96" departLane="best" departSpeed="max">
        <route edges="96931610 -96931610 220847043 -28867719 28867812 17269256 53357945 53357943 17269254 29508075#2 34776006 29498970 24399512 132793806 29498967 264975792 264975794 30016271 131271494 117654832#0 117654832#0-AddedOffRampEdge 117654832#1 117654829 24407716 17221484 24429378 78650992 130637088 34733054#3 89224837 61279427#1 61279428 61282209#0 206355020 24445013 30933839#0 76043672#1 73990212#1 32873885#0 54119871 101492761 332676699 34733037#3 378107625#2 378106168 140559218 261374485#7" />
    </vehicle>
    <vehicle id="rs_c002_i001_23" depart="97.18" departLane="best" departSpeed="max">
        <route edges="-852319713#2 -852319713#1 -852319713#0 852319714#0 852319716 -95102185 -290500795 136864087 231380372 301132114 220927112#0 220927112#1 231380369 24399535 24399534 369178237#1 84744387#1 84744384#1 29498972#0 57726376 26187757#0 26187757#1 58423646 17244015#1 60684995 30140146 4952731-AddedOnRampEdge 4952731 24404956 132816268 132816266 30603092 30603092-AddedOffRampEdge 55587098 55587099" />
    </vehicle>
    <vehicle id="rs_c002_i001_24" depart="101.41" departLane="best" departSpeed="max">
        <route edges="298633620-AddedOffRampEdge 260781601 35313961 61044969 145335484-AddedOnRampEdge 145335484 35313963 132797926 4376381 326205810 132044528 4375990 4375990-AddedOffRampEdge 26344499 23415674 132933319 132933319-AddedOffRampEdge 16823290 60776450 32761248#0 4370490 24373187 285207569 285207565 32787686 285207577 89697123 285207574 189188899 189188900 285208609#0 93362734#1 77375796 30141435#0 30141435#1 -93479923 93362733 89700112 30665194 26707859 26707906 285328351 26707905 26707964 285328348 46746448" />
    </vehicle>
    <vehicle id="rs_c002_i001_25" depart="105.63" departLane="best" departSpeed="max">
        <route edges="609622921#0 574874056#0 574874058 575234415 35779499 35779500 609622932 41880104 97918186 41880099 41880100 24336144 330016493 292953404 132795767 26344446 459818361 132795766 78714806 132817970 132817969 24436443 24436442 24436396 206174911 17244796 5375201 60752383 116350099 -803406962 -333508967 60752374#0 459838433 50433609 5375300 60752388 25555193 30603092 30603092-AddedOffRampEdge 17244798 459817266 17245257 17245257-AddedOffRampEdge 413303757 24436437" />
    </vehicle>
    <vehicle id="rs_c002_i001_26" depart="109.86" departLane="best" departSpeed="max">
        <route edges="5086168 5079846#1 26426336 260898351#0 34733041#3 73101428#1 62518517#1 30262883 41455327#0 37286066 42720514 34733047#0 58097860 29689100#0 58097865 30015227 130637089#0 30261169 34733055 30955886#0 61279423#3 61498122#0 5237397 24429380 24429380-AddedOffRampEdge 29498960 24407665 117654831 189140122 131271487 24407747 24429358 24428931 24428931-AddedOffRampEdge 56701424 56701424-AddedOffRampEdge 25511653 18314420 24404779 24404873 24404885 4952731-AddedOnRampEdge 4952731 24404956 132816268 132816266 30603092 30603092-AddedOffRampEdge 17244798 459817266 17245257 17245257-AddedOffRampEdge 17245261 301710121 149022591 149022593 370772239#1-AddedOnRampEdge 370772239#1 24436416 78631421 39222889 18647496 115757332" />
    </vehicle>
    <vehicle id="rs_c002_i001_27" depart="114.08" departLane="best" departSpeed="max">
        <route edges="428894620 484230582#0 484230584 670988472 427684130#0 427684130#3 -721683414 516286093#0 516286093#1 721683416 721683412 177658441#0 177658441#1 610006610#3 610006610#4 610006610#5 610006610#6 610006610#7 80305919 41832783#1 41832785#1 160308970 44529219 80305904 22918530 330192679 4470777 26349723 25523330 28717575 133104417#0 133104417#1 28617476#0 28617476#3 138063043#0 4492784#0 4492784#2 368303265#0 368303265#1 4217916 285102745 29971577#0 29971577#1 80242782#1 35359129 41882141 622564959#0 -76735936 -76735937 -103304620 -4217917#0 -18467158 -81178601 -76737122#0 -85564174#2 -85564174#0 -85564173 -76737123 4217935 96701428 -81178546 4217936 179043482#0 8135496#0 29971901 970619094#1 970619095#0 970619095#3 190934949 8135493 314694638 -35356131 -29753042#1 -29753042#0 387040997 683214432#0 683214432#1 387040995 -76732306#1 -76732306#0 -4217649 -700185937 300068888 693001072#1 -820139070 -693001074 693001075 -946065101 -693001081 693001088#0" />
    </vehicle>
    <vehicle id="rs_c002_i001_28" depart="118.31" departLane="best" departSpeed="max">
        <route edges="365078231 5240346 26186313 751142299#0 29508366 29508367 4376439 35777389 35777388 25561691 16817445 25497861 26186005 25497860 17243588 18314420 24404779 24404873 24404885 4952731-AddedOnRampEdge 4952731 24404956 132816268 132816266 30603092" />
    </vehicle>
    <vehicle id="rs_c002_i001_29" depart="122.54" departLane="best" departSpeed="max">
        <route edges="24485848 4387437 26344500 132044545 5065275 30681776 39163043 206112920 206112920-AddedOffRampEdge 17967521 17967516 77340597" />
    </vehicle>
    <vehicle id="rs_c002_i001_30" depart="126.76" departLane="best" departSpeed="max">
        <route edges="125684042#0 93670626 624417041 102332988#0 38455341#0 243759680 190981790#0 93670633#1 20826774 190981787 126449241 34178668 4220452#0 60104143 654803140 34178669 654803138 35873188 85044863#0 188654001#0 30956035#0 26348749 35873189 25153046#0 35391376 40801557 25153048 28241504 34036603 25361758 148251974 35061524 35061793 32262396#0 32262396#1 32262396#2 25361736 35061798 25361737 301606219 25361739 38325513 35355373 38674844 25153039#0 25153041 40801556 25153043#0" />
    </vehicle>
    <vehicle id="rs_c002_i001_31" depart="130.99" departLane="best" departSpeed="max">
        <route edges="182692852#1 751941886 182692856#0 -182692856#0 182692850#0 144965480#0 237496649 -237496655 -237496656 237496654 237496659#0 36902188#0 -35362891 38438996#0 38438996#3 427683766 670988473 670988474 670988472 427684130#0 427684130#3 -721683414 516286093#0 516286093#1 721683416 721683412 177658441#0 177658441#1 610006610#3 610006610#4 610006610#5 610006610#6 610006610#7 80305919 41832783#1 41832785#1 160308970 44529219 80305904 22918530 330192679 4470777 26349723 25523330 28717575 133104417#0 133104417#1 28617476#0 28617476#3 138063043#0 4492784#0 4492784#2 368303265#0 368303265#1 4217916 285102745 29971577#0 29971577#1 -80242782#0" />
    </vehicle>
    <vehicle id="rs_c002_i001_32" depart="135.21" departLane="best" departSpeed="max">
        <route edges="28554415 -28554415 -28558071#0 -287050887#1 -287050887#0 -28554414 108927651 -83592306#0 30290678 93479923 676304435 30290611 -77375796 -93479925#0 285208610#0 -849819996 -189188899 285207575 -89697123 285207576 -32787686 -285207565 285207566 285207568 285207570 -374886389 30141434#0 30140154 89746911#0 30140156#0 43302994 30140157 354079392 24485848 4387437 26344500 132044545 5065275 30681776 39163043 206112920 206112920-AddedOffRampEdge 17967521 4904151 4904151-AddedOffRampEdge" />
    </vehicle>
    <vehicle id="rs_c002_i001_33" depart="139.44" departLane="best" departSpeed="max">
        <route edges="118155456#2 -118155456#2 118155452#0 118155452#1 -34776024 -34776023#0 -57726373#0 29498972#0 57726376 26187757#0 26187757#1 58423646 17244015#1 60684995 30140146 4952731-AddedOnRampEdge 4952731 24404956 132816268 132816266 30603092 30603092-AddedOffRampEdge 17244798 459817266 17245257 17245257-AddedOffRampEdge 413303757 24436437 607800580 24436439 301710105 301710114 5234175 417810038 30914194 30914195#0 30914193 93670632 102332987#0 43136453 243683880 125684042#0 93670626 624417041 102332988#0 38455334 38455335 335091838 125565903 38455338 26368687 530282939 530282938 34905760#0 34905760#1 34905760#2 5234400 26368688 38455339 335091843#0" />
    </vehicle>
    <vehicle id="rs_c002_i001_34" depart="143.66" departLane="best" departSpeed="max">
        <route edges="132933319 132933319-AddedOffRampEdge 16823290 60776450 32761248#0 30140154 89746911#0 30140156#0 43302994 30140157 354079392 24485848 4387437 26344500 132044545 5065275 30681776 39163043 206112920 206112920-AddedOffRampEdge 17967521 17967516 77340597 24429566 77340596 23207529 178272679 32620523#0 41861087 10621055 35029083 41861086 56838718 24429561 39163044 172879174 172879174-AddedOffRampEdge 28777365 30618351" />
    </vehicle>
    <vehicle id="rs_c002_i001_35" depart="147.89" departLane="best" departSpeed="max">
        <route edges="24436432 5235828 5235818 333333512 333259059 30602646 132814902 35066121#4 35066121#5 35066121#6 35066121#7 35066121#0 58422626 329359060 58422627 333411021 5235813 30602645 4287469 35669033 24436437 607800580 24436439 301710105 301710114 5234175 243683604 60921784 78714802 417810022 60921782 330026282 41880603 330026281 27126564 41880105 41880107 330029416 29509745 35779501 330029411 42402209 42171472 148323671 229352027#0 42171459#1 42171457#1 42171473 42226780 56236531 4236835 4570442 300849607" />
    </vehicle>
    <vehicle id="rs_c002_i001_36" depart="152.11" departLane="best" departSpeed="max">
        <route edges="35360074-AddedOnRampEdge 35360074 124880141 6268850 85248807 60744439 85248806 267130262 37726331#0 53355166 159213342 891868407 6268844 60744434 124879190 124879189 124879189-AddedOffRampEdge 35360073 514488460 38906267 177563333 15072835 30251151 30251148 30251145#0 30251142#0 219894905 26344393 26344391 132031235 35309409#0 132031223 132031242 35355948#0 4376344 35399455 132031230 26344370 132031239 132031239-AddedOffRampEdge 367783055 574521949 377252475 5061723 132044513 132044521 5061717 26344500 132044545 5065275 30681776 39163043 206112920 206112920-AddedOffRampEdge 17967521 4904151 4904151-AddedOffRampEdge 77340598 24470119 60681548 24470117#0 41861092 16820737#0 116683175 206350662 -76168986#1 -34588356 -169871323 -76178990 -76178992#0" />
    </vehicle>
    <vehicle id="rs_c002_i001_37" depart="156.34" departLane="best" departSpeed="max">
        <route edges="14362476 53826097 -45365077 45361047 363101285#1 53826101 368373023 383169347 132855654 132855652 30603089 132855651 132855653 207297484 132814895 30603090 30602645 4287469 35669033 24436437 607800580 24436439 301710105 301710114 5234175 417810038 30914194 30914195#0 43232012 123427231#0 223401059#0 123429084 145732305#1 133114349 96718342 30587323#0 133113961 133114348 133113960#0 133113954 133113827 93968890 93968868#0 104374237 116943414#0 125590593#1 125590811#0 125590811#1 125590811#2 -206621052#4 -206621052#3 -206621052#2 -206621052#1 -206621052#0 47280333 151999263#0 151999263#1 48009522 7918389#0 7918389#1 -7918389#1" />
    </vehicle>
    <vehicle id="rs_c002_i001_38" depart="160.56" departLane="best" departSpeed="max">
        <route edges="136721672 290255302 -290255302 -136721672 -852319713#0 852319714#0 852319716 -95102185 -290500795 136864087 231380372 301132114 220927112#0 220927112#1 231380369 24399535 24399534 369178237#1 84744387#1 84744384#1 29498972#0 57726376 26187757#0 26187757#1 118864086 60684996 26185622 26185622-AddedOffRampEdge 24404948 287565433 17243585 26185946 25497858 25497859 365078231 25561690 25561760 5240598 29508375 60706276 131131453 131131457#0 29508379 16816859 48024318 48024320#0 29508380#0 48024319 26490664 25828887#0 25828887#1 25828889 48422483 25701578 30293591 160278215 160278219 160278210 160278220#0 37833047#0 30293519#0 26469126#0 4700847#0 30141802#0 30141803 96814114 96814116#0 430412980#0 71377807#0 71377807#1" />
    </vehicle>
    <vehicle id="rs_c002_i001_39" depart="164.79" departLane="best" departSpeed="max">
        <route edges="17245257-AddedOffRampEdge 413303757 24436437 607800580 24436439 301710105 301710114 5234175 417810038 30914194 30914195#0 43232012 123427231#0 223401059#0 123429084 145732305#1 133114349 96718342 30587323#0 133113961 133114348 133113960#0 133113954 133113827 93968890" />
    </vehicle>
    <vehicle id="rs_c002_i001_40" depart="169.01" departLane="best" departSpeed="max">
        <route edges="222307221#0 222307221#1 50738088#0 26187757#1 58423646 17244015#1 60684995 30140146 4952731-AddedOnRampEdge 4952731 24404956 132816268 132816266 30603092 30603092-AddedOffRampEdge 55587098 55587099 607800579 24436432 5235828 5235818 333333512 333259059 30602646 132814902 35066121#4 35066121#5 35066121#6 58422497 -61579093#1 -61579093#0 -61579094" />
    </vehicle>
    <vehicle id="rs_c002_i001_41" depart="173.24" departLane="best" departSpeed="max">
        <route edges="38455339 335091843#0 38455341#0 243759680 190981790#0 93670633#1 20826774 190981787 126449241 34178668 4220452#0 60104143 654803140 34178669 654803138 35873188 85044863#0 188654001#0 30956035#0 26348749 35873189 35391373#0 29712332 26348750 28655825#0 29712378#0 77489204 77489212#0 30692830#0 50541464#0 50541462#0 50541459#0 50541460#0 740700745#0 740700745#1 4631278#0 4631278#1 30956063#0 645448232" />
    </vehicle>
    <vehicle id="rs_c002_i001_42" depart="177.46" departLane="best" departSpeed="max">
        <route edges="107348023 24429366 28771939 24429368 24429368-AddedOffRampEdge 4974626 24429369 60613342 4974625 58425476#0 58425476#1 34151622 34151623 4974629 -26344524 26344523 305318211 5379672 26344529 24429370 24429363 24429362 5237387 117654832#0 117654832#0-AddedOffRampEdge 4393082 76858561 60677078#0 117656065#0 68415604 138003097 23960467#0 138003096 23960394 33826296#0 26378883 94332066#0 33826294 28912318 300290916 25980639 39139281 60769751 115757343" />
    </vehicle>
    <vehicle id="rs_c002_i001_43" depart="181.69" departLane="best" departSpeed="max">
        <route edges="29753279 29753280 34360297 17485128 29753283 29753283-AddedOffRampEdge 34359762 34359762-AddedOffRampEdge 854168921 89647078 132833645 138570807 138570807-AddedOffRampEdge 78710039 78710037 331102266 39022781#0 25513939 25514361#0 29045757 61431075#0 122961574 25514547 677423564 30288797#0 35874014 60946241#0 42108462 933650630 429569344 1032492387 83900837#1 80576525#0 184186695#0 73029736#2 30263189#0 71299406#2 130635179#0 130635179#4 71267988#1 30263195#0 25827871 30287700#0 138194589#0 296123012#0 138194571 -326070265 -321801466#0 -321801467#0 -326070266 77771152 -25814847 -93671428#1 -93671428#0 -43300812 302380993#0 8135756 25823847#0 25823848#0 73204591#0 610001946 4470779#0 4485409 138065837 35359521 138065847 138065844 4485410#0 -4485411" />
    </vehicle>
    <vehicle id="rs_c002_i001_44" depart="185.92" departLane="best" departSpeed="max">
        <route edges="131131448 132932906 132932904 132932905#0 25555315#0 60706274 93363186 132932900 365078233 206222939 30140157 354079392 24485848 59359422 5061726 26344503 43301701 25656130 25656131 25656131-AddedOffRampEdge 410000954 235669582 235669582-AddedOffRampEdge 4877205 160075314 287764297 30681775 61352822 287253795 30681771 4882233 61352824 30681773 125420259 5061709 25656192 4376381 326205810 132044528 4375990 4375990-AddedOffRampEdge 5061722" />
    </vehicle>
    <vehicle id="rs_c002_i001_45" depart="190.14" departLane="best" departSpeed="max">
        <route edges="24404952 118865759 58423620 58423646 17244015#1 60684995 30140146 4952731-AddedOnRampEdge 4952731 24404956 132816268 132816266 30603092 30603092-AddedOffRampEdge 55587098 55587099 607800579 24436432 5235828 5235818 333333512 333259059 -333259059 -333333512 -5235818" />
    </vehicle>
    <vehicle id="rs_c002_i001_46" depart="194.37" departLane="best" departSpeed="max">
        <route edges="60685347 25561760 5240598 29508375 60706276 131131453 131131457#0 29508379 16816859 30289257 30289255 60706263 29508376 25561765 25561761 25561691 16817445 25497861 26186005 4258763 131271491 131271496 24429368 24429368-AddedOffRampEdge 24429364 201115549 133109576 30093953 30093951 133109577 86790295 86790295-AddedOffRampEdge 984079182 30093948 4494683 26421927 5053266 17442613 35069344 60613209 58577200#0 26422114 142151463#1 30093942-AddedOnRampEdge 30093942 17442611 4497328 984079181 30093949 307436994 86790297" />
    </vehicle>
    <vehicle id="rs_c002_i001_47" depart="198.59" departLane="best" departSpeed="max">