<?xml version="1.0" encoding="utf-8"?>
<routes>
 <vType color="green" id="taxi" personCapacity="2" vClass="taxi">
  <param key="has.taxi.device" value="true"/>
  <param key="device.taxi.pickUpDuration" value="0"/>
  <param key="device.taxi.dropOffDuration" value="10"/>
  <param key="device.taxi.parking" value="true"/>
 </vType>
 <trip depart="0" from="-300290916" id="t496" to="34733210" type="taxi"/>
 <trip depart="0" from="-328813517" id="t495" to="82259061" type="taxi"/>
 <trip depart="0" from="-5234280#0" id="t494" to="-117649850#1" type="taxi"/>
 <trip depart="0" from="-61371685#0" id="t493" to="-26378934" type="taxi"/>
 <trip depart="0" from="-300981184#0" id="t492" to="331540389#1" type="taxi"/>
 <trip depart="0" from="-22762570" id="t491" to="-25587075" type="taxi"/>
 <trip depart="0" from="217548737" id="t490" to="328266344" type="taxi"/>
 <trip depart="0" from="37523549#0" id="t489" to="285621686" type="taxi"/>
 <trip depart="0" from="-10558007#0" id="t488" to="24424098" type="taxi"/>
 <trip depart="0" from="24483864" id="t487" to="30140998#0" type="taxi"/>
 <trip depart="0" from="-83163106" id="t486" to="138669852" type="taxi"/>
 <trip depart="0" from="86714180#1" id="t485" to="24424238#0" type="taxi"/>
 <trip depart="0" from="-71284400#4" id="t484" to="137294685" type="taxi"/>
 <trip depart="0" from="5067786#0" id="t483" to="-886452843" type="taxi"/>
 <trip depart="0" from="-117099146#0" id="t482" to="-72728833" type="taxi"/>
 <trip depart="0" from="-23309338" id="t481" to="5094345#1" type="taxi"/>
 <trip depart="0" from="-84017983" id="t480" to="-234955764" type="taxi"/>
 <trip depart="0" from="-61491724" id="t479" to="-285150555#1" type="taxi"/>
 <trip depart="0" from="-62116511" id="t478" to="-29508363" type="taxi"/>
 <trip depart="0" from="183247520" id="t477" to="78535798#2" type="taxi"/>
 <trip depart="0" from="-61279845" id="t476" to="5094268#0" type="taxi"/>
 <trip depart="0" from="-122529094#5" id="t475" to="-314422898#0" type="taxi"/>
 <trip depart="0" from="117626381" id="t474" to="-4353778#3" type="taxi"/>
 <trip depart="0" from="-211042303#2" id="t473" to="-187371398" type="taxi"/>
 <trip depart="0" from="-258892124#0" id="t472" to="-76178992#0" type="taxi"/>
 <trip depart="0" from="-127604675#0" id="t471" to="-233171094#2" type="taxi"/>
 <trip depart="0" from="-81646465#0" id="t470" to="-85562446#0" type="taxi"/>
 <trip depart="0" from="10377170" id="t469" to="-5065866#1" type="taxi"/>
 <trip depart="0" from="126449309" id="t468" to="117624637#1" type="taxi"/>
 <trip depart="0" from="-217696353" id="t467" to="-96809683#1" type="taxi"/>
 <trip depart="0" from="-98873592" id="t466" to="-328253309#0" type="taxi"/>
 <trip depart="0" from="-26121953" id="t465" to="-328253310#1" type="taxi"/>
 <trip depart="0" from="-8597242#3" id="t464" to="59683236#0" type="taxi"/>
 <trip depart="0" from="-61970059" id="t463" to="367159751" type="taxi"/>
 <trip depart="0" from="35606385#2" id="t462" to="117624637#1" type="taxi"/>
 <trip depart="0" from="-286340281" id="t461" to="25542556#0" type="taxi"/>
 <trip depart="0" from="62112126" id="t460" to="117099159#2" type="taxi"/>
 <trip depart="0" from="-10405223#1" id="t459" to="-6926949#1" type="taxi"/>
 <trip depart="0" from="-29688693" id="t458" to="58422788#0-AddedOffRampEdge" type="taxi"/>
 <trip depart="0" from="24423403#5" id="t457" to="-136721672" type="taxi"/>
 <trip depart="0" from="56253839" id="t456" to="-117639101#1" type="taxi"/>
 <trip depart="0" from="-80497802#0" id="t455" to="-10516236" type="taxi"/>
 <trip depart="0" from="285621711#0" id="t454" to="-285119157" type="taxi"/>
 <trip depart="0" from="-62115255" id="t453" to="83163097#1" type="taxi"/>
 <trip depart="0" from="24423403#4" id="t452" to="-61979389#0" type="taxi"/>
 <trip depart="0" from="-122529096#7" id="t451" to="26349564#2" type="taxi"/>
 <trip depart="0" from="-8597252" id="t450" to="-8394848" type="taxi"/>
 <trip depart="0" from="62419359#1" id="t449" to="108336183#2" type="taxi"/>
 <trip depart="0" from="-60706252" id="t448" to="-62115257" type="taxi"/>
 <trip depart="0" from="127605823#3" id="t447" to="-136721675" type="taxi"/>
 <trip depart="0" from="-61970059" id="t446" to="-557399294" type="taxi"/>
 <trip depart="0" from="-62161909" id="t445" to="-127207622" type="taxi"/>
 <trip depart="0" from="42971159" id="t444" to="5234573#0" type="taxi"/>
 <trip depart="0" from="117624637#0" id="t443" to="-211120149" type="taxi"/>
 <trip depart="0" from="-10426113#0" id="t442" to="-80338645" type="taxi"/>
 <trip depart="0" from="26348751#0" id="t441" to="-233171094#2" type="taxi"/>
 <trip depart="0" from="24423941" id="t440" to="-59683236#1" type="taxi"/>
 <trip depart="0" from="42793238#1" id="t439" to="-117639101#0" type="taxi"/>
 <trip depart="0" from="-4680630" id="t438" to="38435331" type="taxi"/>
 <trip depart="0" from="35062429#0" id="t437" to="23198366#1" type="taxi"/>
 <trip depart="0" from="122529102#4" id="t436" to="-62071809#0" type="taxi"/>
 <trip depart="0" from="117057370" id="t435" to="-51340242" type="taxi"/>
 <trip depart="0" from="-300981184#0" id="t434" to="5095213" type="taxi"/>
 <trip depart="0" from="205258663#2" id="t433" to="-103302383#2" type="taxi"/>
 <trip depart="0" from="-62071809#0" id="t432" to="-85127081" type="taxi"/>
 <trip depart="0" from="-286243205" id="t431" to="48719672" type="taxi"/>
 <trip depart="0" from="24823117#2" id="t430" to="138067566#1" type="taxi"/>
 <trip depart="0" from="-233171094#2" id="t429" to="328266345" type="taxi"/>
 <trip depart="0" from="-74310198" id="t428" to="133113957#0" type="taxi"/>
 <trip depart="0" from="-122529098#1" id="t427" to="-10372364#0" type="taxi"/>
 <trip depart="0" from="-5067354#0" id="t426" to="-15242128#1" type="taxi"/>
 <trip depart="0" from="8064520" id="t425" to="582264124" type="taxi"/>
 <trip depart="0" from="183247519#0" id="t424" to="127605823#1" type="taxi"/>
 <trip depart="0" from="25767797#0" id="t423" to="133113957#0" type="taxi"/>
 <trip depart="0" from="26428052" id="t422" to="-5206548" type="taxi"/>
 <trip depart="0" from="4273623" id="t421" to="290255303#2" type="taxi"/>
 <trip depart="0" from="-4361947" id="t420" to="-367001370" type="taxi"/>
 <trip depart="0" from="-62065945#0" id="t419" to="286340278" type="taxi"/>
 <trip depart="0" from="86527681#1" id="t418" to="-807837521#2" type="taxi"/>
 <trip depart="0" from="-30471450" id="t417" to="169313833#0" type="taxi"/>
 <trip depart="0" from="27246253" id="t416" to="-313656937" type="taxi"/>
 <trip depart="0" from="-5234573#0" id="t415" to="116049438" type="taxi"/>
 <trip depart="0" from="84639218" id="t414" to="-39125215#0" type="taxi"/>
 <trip depart="0" from="-185427811" id="t413" to="60706266" type="taxi"/>
 <trip depart="0" from="138669852" id="t412" to="4233644#1" type="taxi"/>
 <trip depart="0" from="-140536663" id="t411" to="-5239877" type="taxi"/>
 <trip depart="0" from="233428287" id="t410" to="4246322#0" type="taxi"/>
 <trip depart="0" from="61279838#1" id="t409" to="29690378" type="taxi"/>
 <trip depart="0" from="61279838#1" id="t408" to="25894166#2" type="taxi"/>
 <trip depart="0" from="-77875136" id="t407" to="-84639212" type="taxi"/>
 <trip depart="0" from="117656067#1" id="t406" to="-85583085" type="taxi"/>
 <trip depart="0" from="25153041" id="t405" to="117649862#1" type="taxi"/>
 <trip depart="0" from="118155456#0" id="t404" to="-147133783#1" type="taxi"/>
 <trip depart="0" from="79258885" id="t403" to="38674840" type="taxi"/>
 <trip depart="0" from="-6926949#1" id="t402" to="220802775" type="taxi"/>
 <trip depart="0" from="94124202" id="t401" to="-122529096#6" type="taxi"/>
 <trip depart="0" from="97836595" id="t400" to="331540389#1" type="taxi"/>
 <trip depart="0" from="9702971#1" id="t399" to="-886306666" type="taxi"/>
 <trip depart="0" from="-95937723" id="t398" to="26428052" type="taxi"/>
 <trip depart="0" from="61566223" id="t397" to="75561919#1" type="taxi"/>
 <trip depart="0" from="-149107332" id="t396" to="-24423403#10" type="taxi"/>
 <trip depart="0" from="5234757#1" id="t395" to="241023763" type="taxi"/>
 <trip depart="0" from="846117752" id="t394" to="122529102#3" type="taxi"/>
 <trip depart="0" from="100018570#0" id="t393" to="61281939#1" type="taxi"/>
 <trip depart="0" from="-122529105" id="t392" to="34495949" type="taxi"/>
 <trip depart="0" from="29509219#0" id="t391" to="5091196#0" type="taxi"/>
 <trip depart="0" from="62109012#2" id="t390" to="30693229" type="taxi"/>
 <trip depart="0" from="62162663#1" id="t389" to="-126905984" type="taxi"/>
 <trip depart="0" from="26367998#1" id="t388" to="4952735#0" type="taxi"/>
 <trip depart="0" from="-217548735" id="t387" to="-770900877" type="taxi"/>
 <trip depart="0" from="62162659#1" id="t386" to="26127182#0" type="taxi"/>
 <trip depart="0" from="890973612" id="t385" to="-366308473" type="taxi"/>
 <trip depart="0" from="-61566225#0" id="t384" to="37972616" type="taxi"/>
 <trip depart="0" from="5234766" id="t383" to="27145952" type="taxi"/>
 <trip depart="0" from="-233220919" id="t382" to="44680915" type="taxi"/>
 <trip depart="0" from="-63134322#1" id="t381" to="223401058#0" type="taxi"/>
 <trip depart="0" from="-61970059" id="t380" to="-5234431#1" type="taxi"/>
 <trip depart="0" from="5053270" id="t379" to="211042302#1" type="taxi"/>
 <trip depart="0" from="-327763010" id="t378" to="-864640791" type="taxi"/>
 <trip depart="0" from="-8597242#3" id="t377" to="4341507#0" type="taxi"/>
 <trip depart="0" from="-117649850#0" id="t376" to="30587326#0" type="taxi"/>
 <trip depart="0" from="4273629" id="t375" to="-62116513" type="taxi"/>
 <trip depart="0" from="159761032#0" id="t374" to="24423403#2" type="taxi"/>
 <trip depart="0" from="10501707" id="t373" to="-80323717#1" type="taxi"/>
 <trip depart="0" from="-137996252" id="t372" to="-126709272#0" type="taxi"/>
 <trip depart="0" from="26127182#0" id="t371" to="-4233512" type="taxi"/>
 <trip depart="0" from="-74694793" id="t370" to="-102278339" type="taxi"/>
 <trip depart="0" from="10363546" id="t369" to="-210282070" type="taxi"/>
 <trip depart="0" from="42792917#2" id="t368" to="886452845" type="taxi"/>
 <trip depart="0" from="-61281939#0" id="t367" to="24049140#1" type="taxi"/>
 <trip depart="0" from="301503276" id="t366" to="40801556" type="taxi"/>
 <trip depart="0" from="46606594#0" id="t365" to="17006445" type="taxi"/>
 <trip depart="0" from="321098632#1" id="t364" to="364586640#1" type="taxi"/>
 <trip depart="0" from="38455341#0" id="t363" to="83187094" type="taxi"/>
 <trip depart="0" from="-217763498#1" id="t362" to="-125351113" type="taxi"/>
 <trip depart="0" from="220802775" id="t361" to="-30141086#0" type="taxi"/>
 <trip depart="0" from="26165752#1" id="t360" to="25976329#1" type="taxi"/>
 <trip depart="0" from="217548737" id="t359" to="5063784" type="taxi"/>
 <trip depart="0" from="96597366#1" id="t358" to="-283762344" type="taxi"/>
 <trip depart="0" from="-75612391#0" id="t357" to="1006265805#0" type="taxi"/>
 <trip depart="0" from="60057956" id="t356" to="27246253" type="taxi"/>
 <trip depart="0" from="-14573382#1" id="t355" to="367159751" type="taxi"/>
 <trip depart="0" from="-39014988" id="t354" to="61997814#1" type="taxi"/>
 <trip depart="0" from="-24429415" id="t353" to="190981790#0" type="taxi"/>
 <trip depart="0" from="24423403#7" id="t352" to="-123037083" type="taxi"/>
 <trip depart="0" from="97836595" id="t351" to="-62116511" type="taxi"/>
 <trip depart="0" from="27222302#0" id="t350" to="-188280591" type="taxi"/>
 <trip depart="0" from="-62115261" id="t349" to="364031091" type="taxi"/>
 <trip depart="0" from="61371680#1" id="t348" to="40392946#1" type="taxi"/>
 <trip depart="0" from="24049140#1" id="t347" to="24823117#2" type="taxi"/>
 <trip depart="0" from="-75554991" id="t346" to="-40109005#0" type="taxi"/>
 <trip depart="0" from="144246396#1" id="t345" to="212690611#1" type="taxi"/>
 <trip depart="0" from="83488857#1" id="t344" to="286243202" type="taxi"/>
 <trip depart="0" from="364419352#0" id="t343" to="30326685#1" type="taxi"/>
 <trip depart="0" from="-84016143" id="t342" to="58027236" type="taxi"/>
 <trip depart="0" from="26368315" id="t341" to="29688714#0" type="taxi"/>
 <trip depart="0" from="-76072397" id="t340" to="-209234443" type="taxi"/>
 <trip depart="0" from="130735705" id="t339" to="-122529102#3" type="taxi"/>
 <trip depart="0" from="87753985" id="t338" to="205258663#0" type="taxi"/>
 <trip depart="0" from="286342117" id="t337" to="-333144415" type="taxi"/>
 <trip depart="0" from="-10516873" id="t336" to="-297159795#0" type="taxi"/>
 <trip depart="0" from="-349896687#1" id="t335" to="169313833#0" type="taxi"/>
 <trip depart="0" from="136864084#3" id="t334" to="30141363#0" type="taxi"/>
 <trip depart="0" from="4233646" id="t333" to="-60752388" type="taxi"/>
 <trip depart="0" from="-118869284#1" id="t332" to="126449221#0" type="taxi"/>
 <trip depart="0" from="-5239877" id="t331" to="-114183032" type="taxi"/>
 <trip depart="0" from="-6927774" id="t330" to="10363468" type="taxi"/>
 <trip depart="0" from="5095213" id="t329" to="93672775" type="taxi"/>
 <trip depart="0" from="4220453" id="t328" to="41882139" type="taxi"/>
 <trip depart="0" from="-42793238#0" id="t327" to="5137952" type="taxi"/>
 <trip depart="0" from="-24398203#1" id="t326" to="75554978#1" type="taxi"/>
 <trip depart="0" from="126499972#2" id="t325" to="35772871" type="taxi"/>
 <trip depart="0" from="-644345091#0" id="t324" to="5230785" type="taxi"/>
 <trip depart="0" from="5205353#0" id="t323" to="-74310198" type="taxi"/>
 <trip depart="0" from="-193687709" id="t322" to="96202733" type="taxi"/>
 <trip depart="0" from="5231759" id="t321" to="29498965" type="taxi"/>
 <trip depart="0" from="-124537762" id="t320" to="122529104#0" type="taxi"/>
 <trip depart="0" from="116049443#2" id="t319" to="122529102#3" type="taxi"/>
 <trip depart="0" from="-285119157" id="t318" to="-62789947#1" type="taxi"/>
 <trip depart="0" from="-127604675#0" id="t317" to="-4238018#1" type="taxi"/>
 <trip depart="0" from="96596623#1" id="t316" to="-62789947#2" type="taxi"/>
 <trip depart="0" from="5206421" id="t315" to="-61279838#0" type="taxi"/>
 <trip depart="0" from="35970674" id="t314" to="116049443#2" type="taxi"/>
 <trip depart="0" from="57722544" id="t313" to="-15242129#1" type="taxi"/>
 <trip depart="0" from="5067357#1" id="t312" to="23960853#0" type="taxi"/>
 <trip depart="0" from="29688693" id="t311" to="-83292788" type="taxi"/>
 <trip depart="0" from="-10420511" id="t310" to="4485423" type="taxi"/>
 <trip depart="0" from="22918188#2" id="t309" to="122529096#4" type="taxi"/>
 <trip depart="0" from="-86527656" id="t308" to="25894166#0" type="taxi"/>
 <trip depart="0" from="5067357#0" id="t307" to="61982178#0" type="taxi"/>
 <trip depart="0" from="-98158886#0" id="t306" to="35028305" type="taxi"/>
 <trip depart="0" from="38435331" id="t305" to="427173722" type="taxi"/>
 <trip depart="0" from="-142497100#0" id="t304" to="61367419#2" type="taxi"/>
 <trip depart="0" from="-10501671" id="t303" to="-185321716" type="taxi"/>
 <trip depart="0" from="42556999" id="t302" to="-224710093#1" type="taxi"/>
 <trip depart="0" from="285017097" id="t301" to="24483864" type="taxi"/>
 <trip depart="0" from="-126449297#1" id="t300" to="-16345612#0" type="taxi"/>
 <trip depart="0" from="-117099159#5" id="t299" to="-97855055" type="taxi"/>
 <trip depart="0" from="117649872" id="t298" to="-16626712" type="taxi"/>
 <trip depart="0" from="-101158310" id="t297" to="-61982178#0" type="taxi"/>
 <trip depart="0" from="-97694266" id="t296" to="-62513944#0" type="taxi"/>
 <trip depart="0" from="4485412#1" id="t295" to="-5137922#0" type="taxi"/>
 <trip depart="0" from="29688714#0" id="t294" to="4353778#1" type="taxi"/>
 <trip depart="0" from="188956290" id="t293" to="-10508974#0" type="taxi"/>
 <trip depart="0" from="206521449" id="t292" to="-57726373#0" type="taxi"/>
 <trip depart="0" from="-335084841#0" id="t291" to="30140141" type="taxi"/>
 <trip depart="0" from="-71284400#5" id="t290" to="130639533" type="taxi"/>
 <trip depart="0" from="97694267" id="t289" to="117656063#1" type="taxi"/>
 <trip depart="0" from="-886306666" id="t288" to="39644113#0" type="taxi"/>
 <trip depart="0" from="96718342" id="t287" to="-5234278#1" type="taxi"/>
 <trip depart="0" from="340206712" id="t286" to="26959985" type="taxi"/>
 <trip depart="0" from="1006265805#0" id="t285" to="4492785#0" type="taxi"/>
 <trip depart="0" from="-333338273" id="t284" to="-117656067#0" type="taxi"/>
 <trip depart="0" from="24031434#0" id="t283" to="-32016029#3" type="taxi"/>
 <trip depart="0" from="644376876" id="t282" to="5205918" type="taxi"/>
 <trip depart="0" from="-24399325#0" id="t281" to="37523549#0" type="taxi"/>
 <trip depart="0" from="4220763" id="t280" to="51722315#1" type="taxi"/>
 <trip depart="0" from="73225130#1" id="t279" to="579053759" type="taxi"/>
 <trip depart="0" from="-20045694#2" id="t278" to="-137353170" type="taxi"/>
 <trip depart="0" from="117099159#2" id="t277" to="-301127377" type="taxi"/>
 <trip depart="0" from="358697049#0" id="t276" to="35062429#2" type="taxi"/>
 <trip depart="0" from="26165752#1" id="t275" to="-10426171#0" type="taxi"/>
 <trip depart="0" from="-125351113" id="t274" to="-29690378" type="taxi"/>
 <trip depart="0" from="-122529094#0" id="t273" to="30529010#1" type="taxi"/>
 <trip depart="0" from="95916459" id="t272" to="79258885" type="taxi"/>
 <trip depart="0" from="137388192#0" id="t271" to="30602642" type="taxi"/>
 <trip depart="0" from="-62116513" id="t270" to="-126905628#0" type="taxi"/>
 <trip depart="0" from="-51722315#0" id="t269" to="25980639" type="taxi"/>
 <trip depart="0" from="95799445" id="t268" to="4361529#1" type="taxi"/>
 <trip depart="0" from="61970060" id="t267" to="-10516236" type="taxi"/>
 <trip depart="0" from="-331540389#0" id="t266" to="-40537234" type="taxi"/>
 <trip depart="0" from="117649862#1" id="t265" to="126906449" type="taxi"/>
 <trip depart="0" from="-25587246#1" id="t264" to="462046218" type="taxi"/>
 <trip depart="0" from="116049444#1" id="t263" to="46606598" type="taxi"/>
 <trip depart="0" from="25894166#1" id="t262" to="-118864079#0" type="taxi"/>
 <trip depart="0" from="-9702971#0" id="t261" to="-26349563#1" type="taxi"/>
 <trip depart="0" from="232123266" id="t260" to="30257049" type="taxi"/>
 <trip depart="0" from="-5205353#0" id="t259" to="34036603" type="taxi"/>
 <trip depart="0" from="-15242128#0" id="t258" to="116049442" type="taxi"/>
 <trip depart="0" from="126449314" id="t257" to="5065929" type="taxi"/>
 <trip depart="0" from="-83633201" id="t256" to="30786472" type="taxi"/>
 <trip depart="0" from="-10509023" id="t255" to="-237367748#2" type="taxi"/>
 <trip depart="0" from="210993752#2" id="t254" to="5234741" type="taxi"/>
 <trip depart="0" from="-34733209" id="t253" to="358698099#1" type="taxi"/>
 <trip depart="0" from="-4233644#2" id="t252" to="-372445340#0" type="taxi"/>
 <trip depart="0" from="-337456900" id="t251" to="28867716" type="taxi"/>
 <trip depart="0" from="-127604675#0" id="t250" to="87397777" type="taxi"/>
 <trip depart="0" from="364586640#2" id="t249" to="138669850" type="taxi"/>
 <trip depart="0" from="83163119" id="t248" to="28918381#1" type="taxi"/>
 <trip depart="0" from="-30471057#1" id="t247" to="30529010#1" type="taxi"/>
 <trip depart="0" from="-10314886" id="t246" to="-61367419#1" type="taxi"/>
 <trip depart="0" from="-71233702" id="t245" to="285621713" type="taxi"/>
 <trip depart="0" from="-328813517" id="t244" to="79690665#1" type="taxi"/>
 <trip depart="0" from="17006445" id="t243" to="35028510" type="taxi"/>
 <trip depart="0" from="117656067#1" id="t242" to="76074269" type="taxi"/>
 <trip depart="0" from="-61279845" id="t241" to="26959985" type="taxi"/>
 <trip depart="0" from="9702964" id="t240" to="-61279844#0" type="taxi"/>
 <trip depart="0" from="-156117460" id="t239" to="4226192#2" type="taxi"/>
 <trip depart="0" from="-75654891" id="t238" to="117590606" type="taxi"/>
 <trip depart="0" from="-5095178#0" id="t237" to="25894166#0" type="taxi"/>
 <trip depart="0" from="5095197#1" id="t236" to="86527697" type="taxi"/>
 <trip depart="0" from="268585568" id="t235" to="47089826" type="taxi"/>
 <trip depart="0" from="286243203#1" id="t234" to="96809695#1" type="taxi"/>
 <trip depart="0" from="122529094#1" id="t233" to="26127182#0" type="taxi"/>
 <trip depart="0" from="-125689487#1" id="t232" to="96915239#1" type="taxi"/>
 <trip depart="0" from="84639229#1" id="t231" to="-4343796" type="taxi"/>
 <trip depart="0" from="117589025" id="t230" to="84639218" type="taxi"/>
 <trip depart="0" from="-286340281" id="t229" to="-10516453" type="taxi"/>
 <trip depart="0" from="-297159795#1" id="t228" to="83488871" type="taxi"/>
 <trip depart="0" from="-212690611#1" id="t227" to="40801556" type="taxi"/>
 <trip depart="0" from="-117099159#5" id="t226" to="127607379" type="taxi"/>
 <trip depart="0" from="-235047961" id="t225" to="-117624636#1" type="taxi"/>
 <trip depart="0" from="25153041" id="t224" to="-349896687#1" type="taxi"/>
 <trip depart="0" from="-328813517" id="t223" to="29508367" type="taxi"/>
 <trip depart="0" from="-22604695#1" id="t222" to="183236316" type="taxi"/>
 <trip depart="0" from="117099138#0" id="t221" to="24429424" type="taxi"/>
 <trip depart="0" from="58767757#0" id="t220" to="102332984#0" type="taxi"/>
 <trip depart="0" from="-62115992#0" id="t219" to="81646465#1" type="taxi"/>
 <trip depart="0" from="582286859#0" id="t218" to="210192500" type="taxi"/>
 <trip depart="0" from="134219035" id="t217" to="-29689095" type="taxi"/>
 <trip depart="0" from="-34588356" id="t216" to="579053759" type="taxi"/>
 <trip depart="0" from="22475853" id="t215" to="-118864084" type="taxi"/>
 <trip depart="0" from="408861540" id="t214" to="132817973#1" type="taxi"/>
 <trip depart="0" from="285017096" id="t213" to="-26165754#2" type="taxi"/>
 <trip depart="0" from="212688462#1" id="t212" to="-61971213" type="taxi"/>
 <trip depart="0" from="32870033" id="t211" to="205258664#0" type="taxi"/>
 <trip depart="0" from="-4233517#0" id="t210" to="-63116646" type="taxi"/>
 <trip depart="0" from="62065945#1" id="t209" to="24398203#1" type="taxi"/>
 <trip depart="0" from="35873188" id="t208" to="23198366#1" type="taxi"/>
 <trip depart="0" from="76074269" id="t207" to="-84018033" type="taxi"/>
 <trip depart="0" from="162352616" id="t206" to="-26127182#0" type="taxi"/>
 <trip depart="0" from="337470020" id="t205" to="-71284393" type="taxi"/>
 <trip depart="0" from="117643614#0" id="t204" to="25153046#0" type="taxi"/>
 <trip depart="0" from="4229454#0" id="t203" to="62513944#1" type="taxi"/>
 <trip depart="0" from="58425043" id="t202" to="30289129" type="taxi"/>
 <trip depart="0" from="17265677" id="t201" to="98236882#1" type="taxi"/>
 <trip depart="0" from="8394862" id="t200" to="29508078" type="taxi"/>
 <trip depart="0" from="18648957#0" id="t199" to="122529104#3" type="taxi"/>
 <trip depart="0" from="-100073149" id="t198" to="-122529094#1" type="taxi"/>
 <trip depart="0" from="-83633201" id="t197" to="-24423403#7" type="taxi"/>
 <trip depart="0" from="10426011#1" id="t196" to="846117752" type="taxi"/>
 <trip depart="0" from="-63116648#0" id="t195" to="183236317" type="taxi"/>
 <trip depart="0" from="103302381" id="t194" to="-44887311" type="taxi"/>
 <trip depart="0" from="29689096#0" id="t193" to="-24398203#1" type="taxi"/>
 <trip depart="0" from="-26127182#0" id="t192" to="-333156359#4" type="taxi"/>
 <trip depart="0" from="117589020" id="t191" to="116049442" type="taxi"/>
 <trip depart="0" from="-24399325#0" id="t190" to="-24049140#0" type="taxi"/>
 <trip depart="0" from="-83163097#1" id="t189" to="-10405292" type="taxi"/>
 <trip depart="0" from="-212687129#1" id="t188" to="-60706252" type="taxi"/>
 <trip depart="0" from="-235047961" id="t187" to="-136721671" type="taxi"/>
 <trip depart="0" from="-712299555" id="t186" to="234540367" type="taxi"/>
 <trip depart="0" from="-6935285#0" id="t185" to="122529102#2" type="taxi"/>
 <trip depart="0" from="-10516368" id="t184" to="100018566#0" type="taxi"/>
 <trip depart="0" from="16626712" id="t183" to="-77608974#0" type="taxi"/>
 <trip depart="0" from="22604699#1" id="t182" to="-116049444#1" type="taxi"/>
 <trip depart="0" from="-25498192" id="t181" to="-62161909" type="taxi"/>
 <trip depart="0" from="8102841" id="t180" to="-26127182#0" type="taxi"/>
 <trip depart="0" from="10357311" id="t179" to="24423960" type="taxi"/>
 <trip depart="0" from="-116049443#2" id="t178" to="-61997814#0" type="taxi"/>
 <trip depart="0" from="61371685#1" id="t177" to="51722315#1" type="taxi"/>
 <trip depart="0" from="-147133993" id="t176" to="8102548" type="taxi"/>
 <trip depart="0" from="332253063#1" id="t175" to="122529098#1" type="taxi"/>
 <trip depart="0" from="-369150317#0" id="t174" to="-62116506#0" type="taxi"/>
 <trip depart="0" from="97694267" id="t173" to="233171094#1" type="taxi"/>
 <trip depart="0" from="177554072" id="t172" to="-80338643" type="taxi"/>
 <trip depart="0" from="-122529094#10" id="t171" to="314252679" type="taxi"/>
 <trip depart="0" from="-83510232#0" id="t170" to="125684101#0" type="taxi"/>
 <trip depart="0" from="-10377153#1" id="t169" to="40109005#1" type="taxi"/>
 <trip depart="0" from="78535771" id="t168" to="127604675#2" type="taxi"/>
 <trip depart="0" from="219528064" id="t167" to="-100018567" type="taxi"/>
 <trip depart="0" from="37076917" id="t166" to="-330415869" type="taxi"/>
 <trip depart="0" from="257423660#1" id="t165" to="79884615" type="taxi"/>
 <trip depart="0" from="28738381#0" id="t164" to="-5234280#0" type="taxi"/>
 <trip depart="0" from="87322982" id="t163" to="-60727160" type="taxi"/>
 <trip depart="0" from="32461045#3" id="t162" to="-23119642" type="taxi"/>
 <trip depart="0" from="-78535798#1" id="t161" to="-30141087" type="taxi"/>
 <trip depart="0" from="24426767#1" id="t160" to="-5234280#0" type="taxi"/>
 <trip depart="0" from="-82259070#0" id="t159" to="-6935800#1" type="taxi"/>
 <trip depart="0" from="-10502291#1" id="t158" to="62162662" type="taxi"/>
 <trip depart="0" from="-117099159#5" id="t157" to="-34149612#0" type="taxi"/>
 <trip depart="0" from="122529102#3" id="t156" to="5067351#0" type="taxi"/>
 <trip depart="0" from="703967788#0" id="t155" to="-4952786#0" type="taxi"/>
 <trip depart="0" from="30263381" id="t154" to="62513944#1" type="taxi"/>
 <trip depart="0" from="-80498850" id="t153" to="138350776" type="taxi"/>
 <trip depart="0" from="-21052315#0" id="t152" to="-29689095" type="taxi"/>
 <trip depart="0" from="333156357" id="t151" to="-62161908#0" type="taxi"/>
 <trip depart="0" from="-118864079#0" id="t150" to="328253309#1" type="taxi"/>
 <trip depart="0" from="61279844#1" id="t149" to="26187879" type="taxi"/>
 <trip depart="0" from="-886452843" id="t148" to="24592573" type="taxi"/>
 <trip depart="0" from="32496131" id="t147" to="-193684941" type="taxi"/>
 <trip depart="0" from="-26012815#0" id="t146" to="97836595" type="taxi"/>
 <trip depart="0" from="-5205353#0" id="t145" to="26012815#0" type="taxi"/>
 <trip depart="0" from="188001762" id="t144" to="-367006381" type="taxi"/>
 <trip depart="0" from="-61367443" id="t143" to="5094343" type="taxi"/>
 <trip depart="0" from="154150880#1" id="t142" to="-57726375#0" type="taxi"/>
 <trip depart="0" from="-5065866#1" id="t141" to="4238006#0" type="taxi"/>
 <trip depart="0" from="243774930#0" id="t140" to="-118869287" type="taxi"/>
 <trip depart="0" from="5234741" id="t139" to="-22762570" type="taxi"/>
 <trip depart="0" from="70431937" id="t138" to="-4244482#1" type="taxi"/>
 <trip depart="0" from="-116049443#3" id="t137" to="-26165754#2" type="taxi"/>
 <trip depart="0" from="-39125215#0" id="t136" to="75432178" type="taxi"/>
 <trip depart="0" from="117099159#0" id="t135" to="-76180070" type="taxi"/>
 <trip depart="0" from="-84018022#0" id="t134" to="-127604675#0" type="taxi"/>
 <trip depart="0" from="4229476" id="t133" to="130997946" type="taxi"/>
 <trip depart="0" from="4485407" id="t132" to="-328253309#0" type="taxi"/>
 <trip depart="0" from="-122529101" id="t131" to="42743946" type="taxi"/>
 <trip depart="0" from="-100018567" id="t130" to="122529094#1" type="taxi"/>
 <trip depart="0" from="22918190" id="t129" to="164439014" type="taxi"/>
 <trip depart="0" from="5234280#0" id="t128" to="-127604675#1" type="taxi"/>
 <trip depart="0" from="-156117460" id="t127" to="358697049#1" type="taxi"/>
 <trip depart="0" from="28539749#0" id="t126" to="-42792917#1" type="taxi"/>
 <trip depart="0" from="886452846" id="t125" to="-129785060" type="taxi"/>
 <trip depart="0" from="100018570#1" id="t124" to="63540900#0" type="taxi"/>
 <trip depart="0" from="61279844#1" id="t123" to="24466644#0" type="taxi"/>
 <trip depart="0" from="62106241" id="t122" to="117589022#3" type="taxi"/>
 <trip depart="0" from="-4238018#0" id="t121" to="138350780#0" type="taxi"/>
 <trip depart="0" from="-10516368" id="t120" to="8141209" type="taxi"/>
 <trip depart="0" from="-17265677" id="t119" to="-126449297#1" type="taxi"/>
 <trip depart="0" from="-878008051" id="t118" to="339760505#1" type="taxi"/>
 <trip depart="0" from="-117099156#0" id="t117" to="124537762" type="taxi"/>
 <trip depart="0" from="-98236882#0" id="t116" to="-404119038" type="taxi"/>
 <trip depart="0" from="40537228" id="t115" to="-34777320" type="taxi"/>
 <trip depart="0" from="-8597242#1" id="t114" to="41642673" type="taxi"/>
 <trip depart="0" from="35062276" id="t113" to="-358700463" type="taxi"/>
 <trip depart="0" from="24423403#7" id="t112" to="-38659335" type="taxi"/>
 <trip depart="0" from="-38281640#1" id="t111" to="-5137922#0" type="taxi"/>
 <trip depart="0" from="-116049443#1" id="t110" to="-4233644#2" type="taxi"/>
 <trip depart="0" from="-96809695#2" id="t109" to="117631292" type="taxi"/>
 <trip depart="0" from="5374990" id="t108" to="-235031516#0" type="taxi"/>
 <trip depart="0" from="-632149254#0" id="t107" to="-45873419#0" type="taxi"/>
 <trip depart="0" from="-5067354#0" id="t106" to="-4680624#1" type="taxi"/>
 <trip depart="0" from="333144381#1" id="t105" to="286243202" type="taxi"/>