<?xml version="1.0" encoding="utf-8"?>
<routes>
 <vType color="green" id="taxi" personCapacity="2" vClass="taxi">
  <param key="has.taxi.device" value="true"/>
  <param key="device.taxi.pickUpDuration" value="0"/>
  <param key="device.taxi.dropOffDuration" value="10"/>
  <param key="device.taxi.parking" value="true"/>
 </vType>
 <trip depart="0" from="48216657" id="t367" to="-24031434#0" type="taxi"/>
 <trip depart="0" from="58422330" id="t366" to="-286340281" type="taxi"/>
 <trip depart="0" from="237496662" id="t365" to="-117625588" type="taxi"/>
 <trip depart="0" from="-96809693#1" id="t364" to="321098632#1" type="taxi"/>
 <trip depart="0" from="-40109005#0" id="t363" to="126906449" type="taxi"/>
 <trip depart="0" from="10436872" id="t362" to="85044863#0" type="taxi"/>
 <trip depart="0" from="29688700" id="t361" to="-210457775#0" type="taxi"/>
 <trip depart="0" from="-24398203#1" id="t360" to="29508371#0" type="taxi"/>
 <trip depart="0" from="236083705" id="t359" to="-330415869" type="taxi"/>
 <trip depart="0" from="34734674#1" id="t358" to="46606601" type="taxi"/>
 <trip depart="0" from="-61367425#0" id="t357" to="-50738089#1" type="taxi"/>
 <trip depart="0" from="58767757#2" id="t356" to="42556999" type="taxi"/>
 <trip depart="0" from="-76074274" id="t355" to="-241023747" type="taxi"/>
 <trip depart="0" from="-286243200" id="t354" to="654803140" type="taxi"/>
 <trip depart="0" from="-76178990" id="t353" to="-63540896" type="taxi"/>
 <trip depart="0" from="-117625588" id="t352" to="35061794" type="taxi"/>
 <trip depart="0" from="38336405#2" id="t351" to="25894166#0" type="taxi"/>
 <trip depart="0" from="125689487#0" id="t350" to="138350776" type="taxi"/>
 <trip depart="0" from="96559143" id="t349" to="125809105" type="taxi"/>
 <trip depart="0" from="-126905984" id="t348" to="-61279838#0" type="taxi"/>
 <trip depart="0" from="-24405231#1" id="t347" to="-333144415" type="taxi"/>
 <trip depart="0" from="-63540900#0" id="t346" to="17309096" type="taxi"/>
 <trip depart="0" from="-217763498#1" id="t345" to="42743946" type="taxi"/>
 <trip depart="0" from="157460196" id="t344" to="-5137908#1" type="taxi"/>
 <trip depart="0" from="-117589022#0" id="t343" to="213132380" type="taxi"/>
 <trip depart="0" from="-126906449" id="t342" to="-61367424" type="taxi"/>
 <trip depart="0" from="4492787#1" id="t341" to="-61565232#0" type="taxi"/>
 <trip depart="0" from="138661334" id="t340" to="-4233512" type="taxi"/>
 <trip depart="0" from="61367425#1" id="t339" to="53682411#1" type="taxi"/>
 <trip depart="0" from="-314405014" id="t338" to="118155456#2" type="taxi"/>
 <trip depart="0" from="-324738924" id="t337" to="40537229" type="taxi"/>
 <trip depart="0" from="-39014988" id="t336" to="5065860" type="taxi"/>
 <trip depart="0" from="75869950" id="t335" to="-5065866#1" type="taxi"/>
 <trip depart="0" from="28549083" id="t334" to="39297416" type="taxi"/>
 <trip depart="0" from="286175725#0" id="t333" to="126449309" type="taxi"/>
 <trip depart="0" from="-26378769" id="t332" to="24592573" type="taxi"/>
 <trip depart="0" from="10426000" id="t331" to="136721679#2" type="taxi"/>
 <trip depart="0" from="-126709272#1" id="t330" to="-51340801" type="taxi"/>
 <trip depart="0" from="31465531#1" id="t329" to="8064520" type="taxi"/>
 <trip depart="0" from="4233512" id="t328" to="29689100#0" type="taxi"/>
 <trip depart="0" from="30263381" id="t327" to="-32732359" type="taxi"/>
 <trip depart="0" from="26127182#3" id="t326" to="-117057368" type="taxi"/>
 <trip depart="0" from="148251974" id="t325" to="-4233644#2" type="taxi"/>
 <trip depart="0" from="10314886" id="t324" to="-117639101#0" type="taxi"/>
 <trip depart="0" from="29689100#0" id="t323" to="-10426053#3" type="taxi"/>
 <trip depart="0" from="-117626379" id="t322" to="237837493#0" type="taxi"/>
 <trip depart="0" from="8141209" id="t321" to="-30290950" type="taxi"/>
 <trip depart="0" from="130739175#0" id="t320" to="58507979#1" type="taxi"/>
 <trip depart="0" from="39448336" id="t319" to="-74011129#0" type="taxi"/>
 <trip depart="0" from="-147633302#2" id="t318" to="5208422" type="taxi"/>
 <trip depart="0" from="29689095" id="t317" to="-138350780#0" type="taxi"/>
 <trip depart="0" from="-290255301" id="t316" to="57726375#2" type="taxi"/>
 <trip depart="0" from="22475853" id="t315" to="-26127182#1" type="taxi"/>
 <trip depart="0" from="-124537762" id="t314" to="-295993402" type="taxi"/>
 <trip depart="0" from="5206421" id="t313" to="4246322#0" type="taxi"/>
 <trip depart="0" from="53682403#0" id="t312" to="-80323717#1" type="taxi"/>
 <trip depart="0" from="117099159#2" id="t311" to="-10426171#1" type="taxi"/>
 <trip depart="0" from="-26378768" id="t310" to="-117639101#0" type="taxi"/>
 <trip depart="0" from="62057884#2" id="t309" to="-286243205" type="taxi"/>
 <trip depart="0" from="74900148#0" id="t308" to="26368316" type="taxi"/>
 <trip depart="0" from="84017999#1" id="t307" to="42793238#1" type="taxi"/>
 <trip depart="0" from="-314405014" id="t306" to="333150801" type="taxi"/>
 <trip depart="0" from="10426031#1" id="t305" to="177554072" type="taxi"/>
 <trip depart="0" from="5234969" id="t304" to="-26040355#1" type="taxi"/>
 <trip depart="0" from="-14994763" id="t303" to="-28840232#1" type="taxi"/>
 <trip depart="0" from="-38383704" id="t302" to="57070222" type="taxi"/>
 <trip depart="0" from="-26012815#0" id="t301" to="79690665#1" type="taxi"/>
 <trip depart="0" from="30693229" id="t300" to="-30290950" type="taxi"/>
 <trip depart="0" from="117643608" id="t299" to="-313541546" type="taxi"/>
 <trip depart="0" from="-4226192#0" id="t298" to="-8141209" type="taxi"/>
 <trip depart="0" from="-40537228" id="t297" to="-70109064" type="taxi"/>
 <trip depart="0" from="126449231#0" id="t296" to="-4229440" type="taxi"/>
 <trip depart="0" from="28717819#0" id="t295" to="147633302#1" type="taxi"/>
 <trip depart="0" from="60752383" id="t294" to="4229476" type="taxi"/>
 <trip depart="0" from="-24429415" id="t293" to="17462089#0" type="taxi"/>
 <trip depart="0" from="-8141209" id="t292" to="980528933#1" type="taxi"/>
 <trip depart="0" from="79541008" id="t291" to="-39071853" type="taxi"/>
 <trip depart="0" from="61997814#1" id="t290" to="26368316" type="taxi"/>
 <trip depart="0" from="10501618" id="t289" to="-61568101#0" type="taxi"/>
 <trip depart="0" from="10509023" id="t288" to="10357508#0" type="taxi"/>
 <trip depart="0" from="-42557002" id="t287" to="-62161908#0" type="taxi"/>
 <trip depart="0" from="349902607#0" id="t286" to="-122529096#7" type="taxi"/>
 <trip depart="0" from="-321098632#0" id="t285" to="5205951" type="taxi"/>
 <trip depart="0" from="257752024" id="t284" to="63322102#2" type="taxi"/>
 <trip depart="0" from="-117631282" id="t283" to="-136721671" type="taxi"/>
 <trip depart="0" from="61498122#0" id="t282" to="286243202" type="taxi"/>
 <trip depart="0" from="24423828" id="t281" to="51340803#0" type="taxi"/>
 <trip depart="0" from="-232184388" id="t280" to="207112860#1" type="taxi"/>
 <trip depart="0" from="8394848" id="t279" to="37972272" type="taxi"/>
 <trip depart="0" from="-117624637#1" id="t278" to="-95799435" type="taxi"/>
 <trip depart="0" from="333161581" id="t277" to="707213265" type="taxi"/>
 <trip depart="0" from="24423403#9" id="t276" to="14573382#0" type="taxi"/>
 <trip depart="0" from="35391376" id="t275" to="48126141" type="taxi"/>
 <trip depart="0" from="286342117" id="t274" to="125351110" type="taxi"/>
 <trip depart="0" from="-26040294#4" id="t273" to="-61970059" type="taxi"/>
 <trip depart="0" from="-61491725" id="t272" to="22982192#1" type="taxi"/>
 <trip depart="0" from="-10372364#1" id="t271" to="886452846" type="taxi"/>
 <trip depart="0" from="241023763" id="t270" to="5234761#1" type="taxi"/>
 <trip depart="0" from="-123037083" id="t269" to="-16345605#0" type="taxi"/>
 <trip depart="0" from="441826617" id="t268" to="-4238028#0" type="taxi"/>
 <trip depart="0" from="-205468106" id="t267" to="364586640#1" type="taxi"/>
 <trip depart="0" from="117099153" id="t266" to="-208548183" type="taxi"/>
 <trip depart="0" from="-10501671" id="t265" to="-124537762" type="taxi"/>
 <trip depart="0" from="5067764" id="t264" to="-190721768#0" type="taxi"/>
 <trip depart="0" from="-79885356#0" id="t263" to="-125351110" type="taxi"/>
 <trip depart="0" from="-95212556" id="t262" to="-35772871" type="taxi"/>
 <trip depart="0" from="-8135855" id="t261" to="-61997814#0" type="taxi"/>
 <trip depart="0" from="-25894166#2" id="t260" to="5094245" type="taxi"/>
 <trip depart="0" from="71360394" id="t259" to="-116049443#2" type="taxi"/>
 <trip depart="0" from="286404309" id="t258" to="297680872" type="taxi"/>
 <trip depart="0" from="117626381" id="t257" to="-82259070#0" type="taxi"/>
 <trip depart="0" from="-211199290#0" id="t256" to="4233644#0" type="taxi"/>
 <trip depart="0" from="5067356#1" id="t255" to="839402625" type="taxi"/>
 <trip depart="0" from="-300981184#0" id="t254" to="122529102#2" type="taxi"/>
 <trip depart="0" from="232177529#0" id="t253" to="117632808" type="taxi"/>
 <trip depart="0" from="5208458" id="t252" to="-51340242" type="taxi"/>
 <trip depart="0" from="35606385#2" id="t251" to="61495635" type="taxi"/>
 <trip depart="0" from="51667065" id="t250" to="-212694593#0" type="taxi"/>
 <trip depart="0" from="-24398203#1" id="t249" to="5095174" type="taxi"/>
 <trip depart="0" from="-235031517" id="t248" to="5067346#1" type="taxi"/>
 <trip depart="0" from="-127604675#0" id="t247" to="118155456#1" type="taxi"/>
 <trip depart="0" from="408861540" id="t246" to="-15242128#1" type="taxi"/>
 <trip depart="0" from="30326720#1" id="t245" to="-188653321" type="taxi"/>
 <trip depart="0" from="-24399329" id="t244" to="-121411754" type="taxi"/>
 <trip depart="0" from="285119157" id="t243" to="-61367412" type="taxi"/>
 <trip depart="0" from="10500974" id="t242" to="-5205353#0" type="taxi"/>
 <trip depart="0" from="147633302#1" id="t241" to="32016029#5" type="taxi"/>
 <trip depart="0" from="84017451#1" id="t240" to="96934605" type="taxi"/>
 <trip depart="0" from="30326720#0" id="t239" to="126449315#0" type="taxi"/>
 <trip depart="0" from="-21052315#0" id="t238" to="24426767#0" type="taxi"/>
 <trip depart="0" from="-5095178#0" id="t237" to="58422788#0-AddedOffRampEdge" type="taxi"/>
 <trip depart="0" from="5067764" id="t236" to="4238014" type="taxi"/>
 <trip depart="0" from="210993752#2" id="t235" to="-289842054" type="taxi"/>
 <trip depart="0" from="-367001370" id="t234" to="117099159#2" type="taxi"/>
 <trip depart="0" from="24466644#0" id="t233" to="-39644113#2" type="taxi"/>
 <trip depart="0" from="-117631290" id="t232" to="-26295654#1" type="taxi"/>
 <trip depart="0" from="-156515879" id="t231" to="-212687129#3" type="taxi"/>
 <trip depart="0" from="83488871" id="t230" to="-10501671" type="taxi"/>
 <trip depart="0" from="-62513944#0" id="t229" to="132817973#1" type="taxi"/>
 <trip depart="0" from="-79884611" id="t228" to="34178668" type="taxi"/>
 <trip depart="0" from="138914235#1" id="t227" to="-83506735" type="taxi"/>
 <trip depart="0" from="-61367459" id="t226" to="74310614" type="taxi"/>
 <trip depart="0" from="-10426011#1" id="t225" to="30257049" type="taxi"/>
 <trip depart="0" from="8102548" id="t224" to="5091199" type="taxi"/>
 <trip depart="0" from="333338273" id="t223" to="220802775" type="taxi"/>
 <trip depart="0" from="-305527295" id="t222" to="125351165#0" type="taxi"/>
 <trip depart="0" from="-23197960" id="t221" to="848433709" type="taxi"/>
 <trip depart="0" from="4238028#0" id="t220" to="6935800#0" type="taxi"/>
 <trip depart="0" from="-187371398" id="t219" to="-23119642" type="taxi"/>
 <trip depart="0" from="-26012815#0" id="t218" to="-5206965" type="taxi"/>
 <trip depart="0" from="-61367434" id="t217" to="-5095178#1" type="taxi"/>
 <trip depart="0" from="44680915" id="t216" to="117654826" type="taxi"/>
 <trip depart="0" from="59722610" id="t215" to="-61371685#0" type="taxi"/>
 <trip depart="0" from="127604675#2" id="t214" to="-62419359#1" type="taxi"/>
 <trip depart="0" from="62109014#1" id="t213" to="-82259062#0" type="taxi"/>
 <trip depart="0" from="-76178990" id="t212" to="-126449297#1" type="taxi"/>
 <trip depart="0" from="4244653" id="t211" to="61367419#1" type="taxi"/>
 <trip depart="0" from="-317560495" id="t210" to="132817973#1" type="taxi"/>
 <trip depart="0" from="84639218" id="t209" to="-5234137" type="taxi"/>
 <trip depart="0" from="5065931" id="t208" to="83179014" type="taxi"/>
 <trip depart="0" from="61279428" id="t207" to="-50738089#0" type="taxi"/>
 <trip depart="0" from="368496681" id="t206" to="-8102548" type="taxi"/>
 <trip depart="0" from="-314405014" id="t205" to="8102366#0" type="taxi"/>
 <trip depart="0" from="51667067#0" id="t204" to="132817971" type="taxi"/>
 <trip depart="0" from="183236316" id="t203" to="33826299" type="taxi"/>
 <trip depart="0" from="148927038" id="t202" to="78535798#2" type="taxi"/>
 <trip depart="0" from="34760663" id="t201" to="-61367424" type="taxi"/>
 <trip depart="0" from="-803452286#0" id="t200" to="62106371#0" type="taxi"/>
 <trip depart="0" from="74310614" id="t199" to="-6935800#0" type="taxi"/>
 <trip depart="0" from="30140998#0" id="t198" to="76779516" type="taxi"/>
 <trip depart="0" from="364029241#0" id="t197" to="98236882#1" type="taxi"/>
 <trip depart="0" from="122529110" id="t196" to="-97097108" type="taxi"/>
 <trip depart="0" from="25976061" id="t195" to="443551693" type="taxi"/>
 <trip depart="0" from="10363468" id="t194" to="5205951" type="taxi"/>
 <trip depart="0" from="-125351165#0" id="t193" to="-4238018#3" type="taxi"/>
 <trip depart="0" from="118869284#0" id="t192" to="22914198" type="taxi"/>
 <trip depart="0" from="93672775" id="t191" to="-118869287" type="taxi"/>
 <trip depart="0" from="28717819#0" id="t190" to="138669848" type="taxi"/>
 <trip depart="0" from="4237991" id="t189" to="4728026" type="taxi"/>
 <trip depart="0" from="25361892#3" id="t188" to="83163097#1" type="taxi"/>
 <trip depart="0" from="4238028#0" id="t187" to="-108336183#3" type="taxi"/>
 <trip depart="0" from="209234444" id="t186" to="-24398203#1" type="taxi"/>
 <trip depart="0" from="136721679#0" id="t185" to="24466640" type="taxi"/>
 <trip depart="0" from="93672775" id="t184" to="123429084" type="taxi"/>
 <trip depart="0" from="4254366" id="t183" to="46606594#0" type="taxi"/>
 <trip depart="0" from="283762344" id="t182" to="34776014" type="taxi"/>
 <trip depart="0" from="42928295" id="t181" to="148927038" type="taxi"/>
 <trip depart="0" from="-331540413" id="t180" to="-10363555" type="taxi"/>
 <trip depart="0" from="-70908178" id="t179" to="-4233643" type="taxi"/>
 <trip depart="0" from="183247521#3" id="t178" to="117057369" type="taxi"/>
 <trip depart="0" from="-75654891" id="t177" to="-8102545" type="taxi"/>
 <trip depart="0" from="234540368" id="t176" to="126499940" type="taxi"/>
 <trip depart="0" from="-330920155" id="t175" to="-156515879" type="taxi"/>
 <trip depart="0" from="96596623#1" id="t174" to="50433683" type="taxi"/>
 <trip depart="0" from="-83510232#0" id="t173" to="62162662" type="taxi"/>
 <trip depart="0" from="-30326685#1" id="t172" to="-212694592" type="taxi"/>
 <trip depart="0" from="26127182#2" id="t171" to="-138350780#1" type="taxi"/>
 <trip depart="0" from="-28840232#1" id="t170" to="4485412#1" type="taxi"/>
 <trip depart="0" from="-362993459" id="t169" to="-5067354#0" type="taxi"/>
 <trip depart="0" from="-86527681#0" id="t168" to="-5234969" type="taxi"/>
 <trip depart="0" from="5067786#0" id="t167" to="127604675#2" type="taxi"/>
 <trip depart="0" from="-124537762" id="t166" to="10363301" type="taxi"/>
 <trip depart="0" from="126449221#0" id="t165" to="4485412#1" type="taxi"/>
 <trip depart="0" from="35061798" id="t164" to="127604675#2" type="taxi"/>
 <trip depart="0" from="-4226192#0" id="t163" to="-10372376" type="taxi"/>
 <trip depart="0" from="-38336405#3" id="t162" to="-301127378" type="taxi"/>
 <trip depart="0" from="-211120149" id="t161" to="-306713165" type="taxi"/>
 <trip depart="0" from="-611245993" id="t160" to="609759375" type="taxi"/>
 <trip depart="0" from="35062429#0" id="t159" to="286138967" type="taxi"/>
 <trip depart="0" from="136721667" id="t158" to="5234590" type="taxi"/>
 <trip depart="0" from="23119642" id="t157" to="286243203#1" type="taxi"/>
 <trip depart="0" from="10516147#2" id="t156" to="26085515#3" type="taxi"/>
 <trip depart="0" from="-62419359#1" id="t155" to="26187879" type="taxi"/>
 <trip depart="0" from="38674848" id="t154" to="4238006#0" type="taxi"/>
 <trip depart="0" from="-117099153" id="t153" to="40542147" type="taxi"/>
 <trip depart="0" from="5206965" id="t152" to="26349565#0" type="taxi"/>
 <trip depart="0" from="35606385#2" id="t151" to="331540404#1" type="taxi"/>
 <trip depart="0" from="-122529105" id="t150" to="-136721664" type="taxi"/>
 <trip depart="0" from="295993402" id="t149" to="-62161904#0" type="taxi"/>
 <trip depart="0" from="9702964" id="t148" to="34760663" type="taxi"/>
 <trip depart="0" from="58423646" id="t147" to="626942404#1" type="taxi"/>
 <trip depart="0" from="193116298" id="t146" to="136721675" type="taxi"/>
 <trip depart="0" from="337470020" id="t145" to="-5094245" type="taxi"/>
 <trip depart="0" from="-61367434" id="t144" to="-10425883" type="taxi"/>
 <trip depart="0" from="5234587" id="t143" to="142497098" type="taxi"/>
 <trip depart="0" from="6929234#1" id="t142" to="8102548" type="taxi"/>
 <trip depart="0" from="-30471451" id="t141" to="-369181504" type="taxi"/>
 <trip depart="0" from="38325502#1" id="t140" to="35155912" type="taxi"/>
 <trip depart="0" from="30529050#1" id="t139" to="38674840" type="taxi"/>
 <trip depart="0" from="32620523#0" id="t138" to="-337470015#1" type="taxi"/>
 <trip depart="0" from="295993399" id="t137" to="98158886#0" type="taxi"/>
 <trip depart="0" from="10357193" id="t136" to="-117643624" type="taxi"/>
 <trip depart="0" from="8102548" id="t135" to="-129785060" type="taxi"/>
 <trip depart="0" from="5065932" id="t134" to="-57726375#2" type="taxi"/>
 <trip depart="0" from="22918190" id="t133" to="-38336405#2" type="taxi"/>
 <trip depart="0" from="24466640" id="t132" to="-96809693#1" type="taxi"/>
 <trip depart="0" from="5065860" id="t131" to="5234741" type="taxi"/>
 <trip depart="0" from="263421374" id="t130" to="23198366#0" type="taxi"/>
 <trip depart="0" from="61970059" id="t129" to="32870033" type="taxi"/>
 <trip depart="0" from="-125689487#1" id="t128" to="-4244482#1" type="taxi"/>
 <trip depart="0" from="76236377" id="t127" to="136721677#1" type="taxi"/>
 <trip depart="0" from="58422327" id="t126" to="-125351165#0" type="taxi"/>
 <trip depart="0" from="-188653321" id="t125" to="-333144425" type="taxi"/>
 <trip depart="0" from="5091196#0" id="t124" to="-803406962" type="taxi"/>
 <trip depart="0" from="-62161909" id="t123" to="-116049443#2" type="taxi"/>
 <trip depart="0" from="-62116510#0" id="t122" to="-60334214" type="taxi"/>
 <trip depart="0" from="27404368#0" id="t121" to="35062429#2" type="taxi"/>
 <trip depart="0" from="4237996#0" id="t120" to="-5137866" type="taxi"/>
 <trip depart="0" from="-117649887" id="t119" to="25361892#4" type="taxi"/>
 <trip depart="0" from="4680624#1" id="t118" to="83163119" type="taxi"/>
 <trip depart="0" from="44680915" id="t117" to="-76180072" type="taxi"/>
 <trip depart="0" from="-210993752#1" id="t116" to="29970080#0" type="taxi"/>
 <trip depart="0" from="4353778#1" id="t115" to="-61367419#1" type="taxi"/>
 <trip depart="0" from="5094245" id="t114" to="-35067054" type="taxi"/>
 <trip depart="0" from="-26378934" id="t113" to="97694267" type="taxi"/>
 <trip depart="0" from="611245994" id="t112" to="61543316#0" type="taxi"/>
 <trip depart="0" from="427173722" id="t111" to="47089825" type="taxi"/>
 <trip depart="0" from="-62116506#0" id="t110" to="-363811745" type="taxi"/>
 <trip depart="0" from="-30471449" id="t109" to="83173307#1" type="taxi"/>
 <trip depart="0" from="-287449681" id="t108" to="96598385#0" type="taxi"/>
 <trip depart="0" from="63116648#2" id="t107" to="-4952786#0" type="taxi"/>
 <trip depart="0" from="-75565714" id="t106" to="23960394" type="taxi"/>
 <trip depart="0" from="61982178#0" id="t105" to="530282943" type="taxi"/>
 <trip depart="0" from="220802775" id="t104" to="26367998#1" type="taxi"/>
 <trip depart="0" from="39129127" id="t103" to="-84018298" type="taxi"/>
 <trip depart="0" from="-117099151" id="t102" to="703967789#0" type="taxi"/>
 <trip depart="0" from="-122529094#8" id="t101" to="609759377" type="taxi"/>
 <trip depart="0" from="-63540889" id="t100" to="44680915" type="taxi"/>
 <trip depart="0" from="-34776023#0" id="t99" to="-290255301" type="taxi"/>
 <trip depart="0" from="-122529098#1" id="t98" to="-122529094#9" type="taxi"/>
 <trip depart="0" from="122529094#7" id="t97" to="-285017094" type="taxi"/>
 <trip depart="0" from="-24049140#0" id="t96" to="-10405419" type="taxi"/>
 <trip depart="0" from="-980528933#1" id="t95" to="-314405014" type="taxi"/>
 <trip depart="0" from="4226192#2" id="t94" to="233171830" type="taxi"/>
 <trip depart="0" from="10363546" id="t93" to="132817972" type="taxi"/>
 <trip depart="0" from="62109014#1" id="t92" to="-122529098#1" type="taxi"/>
 <trip depart="0" from="-324547492" id="t91" to="-101731771" type="taxi"/>
 <trip depart="0" from="-62161905" id="t90" to="4238091#1" type="taxi"/>
 <trip depart="0" from="57722545" id="t89" to="-39644113#2" type="taxi"/>
 <trip depart="0" from="-62064349" id="t88" to="-50738089#0" type="taxi"/>
 <trip depart="0" from="122529114#1" id="t87" to="40537228" type="taxi"/>
 <trip depart="0" from="-87525116" id="t86" to="-45578880" type="taxi"/>
 <trip depart="0" from="4237991" id="t85" to="130639533" type="taxi"/>
 <trip depart="0" from="-118155456#2" id="t84" to="62789947#1" type="taxi"/>
 <trip depart="0" from="-76179098#0" id="t83" to="117649887" type="taxi"/>
 <trip depart="0" from="6927279" id="t82" to="-80445087#1" type="taxi"/>
 <trip depart="0" from="703967713" id="t81" to="5095206" type="taxi"/>
 <trip depart="0" from="906802009" id="t80" to="125809105" type="taxi"/>
 <trip depart="0" from="-62071808" id="t79" to="-95937943#2" type="taxi"/>
 <trip depart="0" from="211697677" id="t78" to="-62109015" type="taxi"/>
 <trip depart="0" from="-4233645#0" id="t77" to="-62109012#0" type="taxi"/>
 <trip depart="0" from="61543316#1" id="t76" to="4242592" type="taxi"/>
 <trip depart="0" from="84639218" id="t75" to="337470020" type="taxi"/>
 <trip depart="0" from="26187757#1" id="t74" to="4485412#1" type="taxi"/>
 <trip depart="0" from="32620523#0" id="t73" to="8064519" type="taxi"/>
 <trip depart="0" from="62109014#1" id="t72" to="14571549" type="taxi"/>
 <trip depart="0" from="40542147" id="t71" to="5234969" type="taxi"/>
 <trip depart="0" from="-76987970" id="t70" to="-235031516#0" type="taxi"/>
 <trip depart="0" from="8394862" id="t69" to="-211042371" type="taxi"/>
 <trip depart="0" from="169313833#0" id="t68" to="-10363301" type="taxi"/>
 <trip depart="0" from="4872355" id="t67" to="5095190#0" type="taxi"/>
 <trip depart="0" from="416539515" id="t66" to="-84018015" type="taxi"/>
 <trip depart="0" from="-10405419" id="t65" to="87322982" type="taxi"/>
 <trip depart="0" from="-75733552" id="t64" to="-20045870" type="taxi"/>
 <trip depart="0" from="929213813" id="t63" to="-76074274" type="taxi"/>
 <trip depart="0" from="1006265805#3" id="t62" to="6933810" type="taxi"/>
 <trip depart="0" from="51530168" id="t61" to="57070222" type="taxi"/>
 <trip depart="0" from="77489208" id="t60" to="-61495637" type="taxi"/>
 <trip depart="0" from="-24031456#1" id="t59" to="-76072397" type="taxi"/>
 <trip depart="0" from="-4244655" id="t58" to="62789947#1" type="taxi"/>
 <trip depart="0" from="-61367455" id="t57" to="-80445087#1" type="taxi"/>
 <trip depart="0" from="51667065" id="t56" to="117656067#0" type="taxi"/>
 <trip depart="0" from="71332912" id="t55" to="-4233644#0" type="taxi"/>
 <trip depart="0" from="10426021#1" id="t54" to="169313833#1" type="taxi"/>
 <trip depart="0" from="130739175#0" id="t53" to="159761035" type="taxi"/>
 <trip depart="0" from="-54584606" id="t52" to="61970060" type="taxi"/>
 <trip depart="0" from="36244272" id="t51" to="117626823#0" type="taxi"/>
 <trip depart="0" from="4952787" id="t50" to="-52673136" type="taxi"/>
 <trip depart="0" from="5231759" id="t49" to="313535515" type="taxi"/>
 <trip depart="0" from="-117654826" id="t48" to="193116298" type="taxi"/>
 <trip depart="0" from="122529102#1" id="t47" to="117626824" type="taxi"/>
 <trip depart="0" from="-83163126" id="t46" to="-328253310#1" type="taxi"/>
 <trip depart="0" from="-370016264#0" id="t45" to="83173307#1" type="taxi"/>
 <trip depart="0" from="-314422898#0" id="t44" to="-5067814" type="taxi"/>
 <trip depart="0" from="-10509023" id="t43" to="-42792917#1" type="taxi"/>
 <trip depart="0" from="-98873592" id="t42" to="1020573134" type="taxi"/>
 <trip depart="0" from="118864079#2" id="t41" to="35873188" type="taxi"/>
 <trip depart="0" from="97097111#1" id="t40" to="-24429416" type="taxi"/>
 <trip depart="0" from="-162352616" id="t39" to="-76168986#1" type="taxi"/>
 <trip depart="0" from="26348750" id="t38" to="-328266345" type="taxi"/>
 <trip depart="0" from="-132047180" id="t37" to="79851744#2" type="taxi"/>
 <trip depart="0" from="-986106633#1" id="t36" to="5231370" type="taxi"/>
 <trip depart="0" from="117626824" id="t35" to="118864079#2" type="taxi"/>
 <trip depart="0" from="10377170" id="t34" to="58422328" type="taxi"/>
 <trip depart="0" from="-116049443#1" id="t33" to="286243203#0" type="taxi"/>
 <trip depart="0" from="-126449297#0" id="t32" to="5095166" type="taxi"/>
 <trip depart="0" from="45180352" id="t31" to="-212687129#1" type="taxi"/>
 <trip depart="0" from="-195898177" id="t30" to="-212694592" type="taxi"/>
 <trip depart="0" from="-117654819#0" id="t29" to="76737569" type="taxi"/>
 <trip depart="0" from="118155448" id="t28" to="-75732915" type="taxi"/>
 <trip depart="0" from="-10405292" id="t27" to="47089825" type="taxi"/>
 <trip depart="0" from="-117625593" id="t26" to="-210993752#1" type="taxi"/>
 <trip depart="0" from="-51722315#0" id="t25" to="28550640" type="taxi"/>
 <trip depart="0" from="206350041" id="t24" to="137294685" type="taxi"/>
 <trip depart="0" from="137996247" id="t23" to="-632149254#0" type="taxi"/>
 <trip depart="0" from="63322106#1" id="t22" to="-237367539" type="taxi"/>
 <trip depart="0" from="-803406962" id="t21" to="-61566225#0" type="taxi"/>
 <trip depart="0" from="77608974#1" id="t20" to="-22604699#0" type="taxi"/>
 <trip depart="0" from="-116610243" id="t19" to="35061524" type="taxi"/>
 <trip depart="0" from="1080298604" id="t18" to="-24049140#2" type="taxi"/>
 <trip depart="0" from="-6927774" id="t17" to="30786472" type="taxi"/>
 <trip depart="0" from="138350778#1" id="t16" to="-26165752#0" type="taxi"/>
 <trip depart="0" from="5206965" id="t15" to="24398203#1" type="taxi"/>
 <trip depart="0" from="28656717" id="t14" to="4242592" type="taxi"/>
 <trip depart="0" from="-28918381#1" id="t13" to="142497101#0" type="taxi"/>
 <trip depart="0" from="-286342118#1" id="t12" to="-61568101#0" type="taxi"/>
 <trip depart="0" from="30326559" id="t11" to="62061876" type="taxi"/>
 <trip depart="0" from="30263381" id="t10" to="321098632#1" type="taxi"/>
 <trip depart="0" from="83187094" id="t9" to="-117099159#5" type="taxi"/>
 <trip depart="0" from="-42792917#0" id="t8" to="-362993459" type="taxi"/>
 <trip depart="0" from="-26037066" id="t7" to="5234573#1" type="taxi"/>
 <trip depart="0" from="-4238018#0" id="t6" to="4341507#1" type="taxi"/>
 <trip depart="0" from="79885356#1" id="t5" to="864640791" type="taxi"/>
 <trip depart="0" from="-720325888" id="t4" to="-51722315#0" type="taxi"/>
 <trip depart="0" from="61367425#1" id="t3" to="-117649850#0" type="taxi"/>
 <trip depart="0" from="-96945485" id="t2" to="-50738089#1" type="taxi"/>
 <trip depart="0" from="35606385#0" id="t1" to="-101731771" type="taxi"/>
 <trip depart="0" from="335559222" id="t0" to="-42793238#1" type="taxi"/>
 <trip depart="4.0" departLane="best" departSpeed="max" from="-26037066" id="rs_c000_i000_49" to="58423646"/>
 <trip depart="4.0" departLane="best" departSpeed="max" from="-333156359#0" id="rs_c000_i000_50" to="60752388"/>
 <trip depart="5.0" departLane="best" departSpeed="max" from="-48215535#0" id="rs_c000_i001_5" to="25980639"/>
 <person depart="5.0" id="p0">
  <ride from="-126709272#1" lines="taxi" parkingArea="pa102332991" to="102332991"/>
 </person>
 <trip depart="5.0" departLane="best" departSpeed="max" from="116049443#1" id="rs_c000_i000_59" to="26187755#0"/>
 <person depart="6.0" id="p1">
  <ride from="-8597242#1" lines="taxi" parkingArea="pa102332987#0" to="102332987#0"/>
 </person>
 <trip depart="6.0" departLane="best" departSpeed="max" from="96596615#1" id="rs_c000_i000_72" to="41882139"/>
 <person depart="7.0" id="p2">
  <ride from="5231759" lines="taxi" parkingArea="pa29970080#0" to="29970080#0"/>
 </person>
 <trip depart="8.0" departLane="best" departSpeed="max" from="-125351135" id="rs_c001_i000_12" to="26187755#0"/>
 <trip depart="8.0" departLane="best" departSpeed="max" from="-52673136" id="rs_c000_i000_105" to="24429380-AddedOffRampEdge"/>
 <trip depart="8.0" departLane="best" departSpeed="max" from="-62116257" id="rs_c000_i000_98" to="16820737#0"/>
 <person depart="12.0" id="p3">
  <ride from="-217548735" lines="taxi" parkingArea="pa34760663" to="34760663"/>
 </person>
 <trip depart="12.0" departLane="best" departSpeed="max" from="5067770#1" id="rs_c000_i000_138" to="34587265#0"/>
 <trip depart="14.0" departLane="best" departSpeed="max" from="222307221#0" id="rs_c000_i000_151" to="58423646"/>
 <trip depart="15.0" departLane="best" departSpeed="max" from="-24466641" id="rs_c000_i000_161" to="102332991"/>
 <trip depart="16.0" departLane="best" departSpeed="max" from="-4233519" id="rs_c001_i000_25" to="72728808"/>
 <trip depart="16.0" departLane="best" departSpeed="max" from="4233684" id="rs_c000_i001_20" to="102332991"/>
 <person depart="17.0" id="p4">
  <ride from="-212690606" lines="taxi" parkingArea="pa116350100" to="116350100"/>
 </person>