<?xml version="1.0" encoding="UTF-8"?>
<routes>
	<vType id="fuel" accel="0.8" decel="4.5" sigma="0.5" length="5" maxSpeed="40" emissionClass="HBEFA4/PC_petrol_ltECE"/>
	<vType id="electric" accel="0.8" decel="4.5" sigma="0.5" length="5" maxSpeed="40" emissionClass="HBEFA4/PC_BEV"/>

	<trip id="test_trip_0" type="fuel" depart="0" from="-114554800" to="-44960714#1"/>
	<trip id="test_trip_1" type="fuel" depart="0" from="122946787#0" to="77615451#0"/>
	<trip id="test_trip_2" type="fuel" depart="1" from="30528321" to="-101154827"/>
	<trip id="test_trip_3" type="electric" depart="1" from="-126894676#0" to="15103120"/>
	<trip id="test_trip_4" type="electric" depart="1" from="217189185#0" to="-126897923#0"/>
	<trip id="test_trip_5" type="fuel" depart="9" from="114554802#3" to="234100501#2"/>
	<trip id="test_trip_6" type="electric" depart="20" from="114555768#1" to="317000783"/>
	<trip id="test_trip_7" type="fuel" depart="20" from="37290604" to="122948858#0"/>
	<trip id="test_trip_8" type="electric" depart="21" from="37282869#1" to="30956554#0"/>
	<trip id="test_trip_9" type="fuel" depart="22" from="114555768#1" to="36729028#1"/>
	<trip id="test_trip_10" type="electric" depart="25" from="81924134" to="4236349"/>
	<trip id="test_trip_11" type="fuel" depart="26" from="122950927#0" to="23025219#0"/>
	<trip id="test_trip_12" type="fuel" depart="27" from="-126894682#1" to="30528320#0"/>
	<trip id="test_trip_13" type="fuel" depart="29" from="81924141#1" to="42412490"/>
	<trip id="test_trip_14" type="fuel" depart="32" from="-114554779#0" to="24673380"/>
	<trip id="test_trip_15" type="fuel" depart="33" from="82410880#1" to="-217644146"/>
	<trip id="test_trip_16" type="fuel" depart="36" from="28546082" to="-9776916"/>
	<trip id="test_trip_17" type="fuel" depart="37" from="128916509" to="572656872#0"/>
	<trip id="test_trip_18" type="fuel" depart="37" from="317000784#0" to="342717767#1"/>
	<trip id="test_trip_19" type="fuel" depart="38" from="37290604" to="1066551973"/>
	<trip id="test_trip_20" type="fuel" depart="41" from="124448646" to="36729015#1"/>
	<trip id="test_trip_21" type="electric" depart="46" from="30001818" to="-114554759#0"/>
	<trip id="test_trip_22" type="fuel" depart="48" from="122948858#0" to="317000783"/>
	<trip id="test_trip_23" type="fuel" depart="48" from="122949524#0" to="-28842830"/>
	<trip id="test_trip_24" type="fuel" depart="49" from="-37282869#0" to="123635330"/>
	<trip id="test_trip_25" type="fuel" depart="52" from="61059606#0" to="37287290"/>
	<trip id="test_trip_26" type="fuel" depart="53" from="30528384#0" to="36729011#1"/>
	<trip id="test_trip_27" type="fuel" depart="55" from="37287290" to="217644146"/>
	<trip id="test_trip_28" type="fuel" depart="55" from="36726221#0" to="114554802#3"/>
	<trip id="test_trip_29" type="fuel" depart="56" from="28408345" to="81924134"/>
	<trip id="test_trip_30" type="fuel" depart="59" from="-122949522" to="-126894682#1"/>
	<trip id="test_trip_31" type="fuel" depart="62" from="80702170#1" to="-37290602"/>
	<trip id="test_trip_32" type="fuel" depart="64" from="-47796503" to="-114554802#2"/>
	<trip id="test_trip_33" type="electric" depart="66" from="-141320983" to="-80727852"/>
	<trip id="test_trip_34" type="fuel" depart="69" from="-37282869#0" to="9776916"/>
	<trip id="test_trip_35" type="fuel" depart="70" from="-37293912#0" to="-114554779#0"/>
	<trip id="test_trip_36" type="electric" depart="71" from="205434518" to="126894682#1"/>
	<trip id="test_trip_37" type="fuel" depart="71" from="28228803#1" to="-114554802#2"/>
	<trip id="test_trip_38" type="fuel" depart="73" from="62212736#2" to="333061574#1"/>
	<trip id="test_trip_39" type="fuel" depart="73" from="86533504" to="62212736#2"/>
	<trip id="test_trip_40" type="electric" depart="76" from="-80727853" to="-28228803#0"/>
	<trip id="test_trip_41" type="fuel" depart="76" from="15245482" to="30528321"/>
	<trip id="test_trip_42" type="fuel" depart="76" from="37282869#1" to="21081120#1"/>
	<trip id="test_trip_43" type="fuel" depart="76" from="126894678#4" to="23025219#0"/>
	<trip id="test_trip_44" type="electric" depart="76" from="-342534666#0" to="332399561#2"/>
	<trip id="test_trip_45" type="fuel" depart="80" from="123635329" to="-126897923#0"/>
	<trip id="test_trip_46" type="fuel" depart="81" from="-36726223#0" to="-186631612#0"/>
	<trip id="test_trip_47" type="fuel" depart="85" from="1066551973" to="-314642995#0"/>
	<trip id="test_trip_48" type="electric" depart="87" from="60710546#0" to="-80727852"/>
	<trip id="test_trip_49" type="fuel" depart="91" from="23180033" to="114554779#1"/>
	<trip id="test_trip_50" type="fuel" depart="93" from="122949520#1" to="122949520#0"/>
	<trip id="test_trip_51" type="electric" depart="94" from="-333061574#0" to="8014829#1"/>
	<trip id="test_trip_52" type="fuel" depart="96" from="114554764#2" to="86533509#0"/>
	<trip id="test_trip_53" type="electric" depart="96" from="18385008#0" to="-126894676#0"/>
	<trip id="test_trip_54" type="fuel" depart="97" from="28903078" to="58077051"/>
	<trip id="test_trip_55" type="fuel" depart="99" from="82410880#1" to="-126895740"/>
	<trip id="test_trip_56" type="fuel" depart="100" from="30903129#0" to="62212739#0"/>
	<trip id="test_trip_57" type="fuel" depart="102" from="30528321" to="-114554800"/>
	<trip id="test_trip_58" type="fuel" depart="103" from="62201341#1" to="22486710"/>
	<trip id="test_trip_59" type="fuel" depart="106" from="36729011#1" to="-77465095#1"/>
	<trip id="test_trip_60" type="fuel" depart="109" from="317000784#0" to="123635329"/>
	<trip id="test_trip_61" type="fuel" depart="109" from="9776916" to="36729015#1"/>
	<trip id="test_trip_62" type="fuel" depart="110" from="36726220#1" to="38156742"/>
	<trip id="test_trip_63" type="fuel" depart="111" from="-42919373#0" to="-114554802#2"/>
	<trip id="test_trip_64" type="electric" depart="113" from="81527789#1" to="7920348"/>
	<trip id="test_trip_65" type="fuel" depart="117" from="342534666#1" to="37293912#1"/>
	<trip id="test_trip_66" type="electric" depart="117" from="122948858#0" to="81523598#1"/>
	<trip id="test_trip_67" type="fuel" depart="118" from="24479683" to="-9776916"/>
	<trip id="test_trip_68" type="fuel" depart="118" from="86533504" to="-122949524#0"/>
	<trip id="test_trip_69" type="fuel" depart="118" from="122962417" to="-37282869#1"/>
	<trip id="test_trip_70" type="fuel" depart="120" from="205434518" to="126895736"/>
	<trip id="test_trip_71" type="fuel" depart="120" from="86533509#0" to="746490375"/>
	<trip id="test_trip_72" type="fuel" depart="122" from="-114554802#2" to="123911189#0"/>
	<trip id="test_trip_73" type="fuel" depart="126" from="42412490" to="23025219#0"/>
	<trip id="test_trip_74" type="fuel" depart="126" from="-114557570" to="-37282871#1"/>
	<trip id="test_trip_75" type="fuel" depart="127" from="746490375" to="61059606#0"/>
	<trip id="test_trip_76" type="fuel" depart="128" from="30001818" to="15103120"/>
	<trip id="test_trip_77" type="fuel" depart="128" from="28903078" to="-141320983"/>
	<trip id="test_trip_78" type="fuel" depart="132" from="-86533506#1" to="60710546#0"/>
	<trip id="test_trip_79" type="fuel" depart="132" from="81527192" to="37282869#1"/>
	<trip id="test_trip_80" type="fuel" depart="132" from="-81527789#0" to="122949520#0"/>
	<trip id="test_trip_81" type="fuel" depart="133" from="127104869#0" to="30001902"/>
	<trip id="test_trip_82" type="electric" depart="134" from="-333061573#2" to="-82410880#0"/>
	<trip id="test_trip_83" type="fuel" depart="134" from="-82410880#0" to="42412490"/>
	<trip id="test_trip_84" type="fuel" depart="137" from="205434518" to="-28228803#1"/>
	<trip id="test_trip_85" type="fuel" depart="139" from="36729015#1" to="37293912#1"/>
	<trip id="test_trip_86" type="fuel" depart="140" from="23180033" to="42107700#1"/>
	<trip id="test_trip_87" type="electric" depart="140" from="30529424" to="123635329"/>
	<trip id="test_trip_88" type="fuel" depart="141" from="-37293912#0" to="24673382"/>
	<trip id="test_trip_89" type="fuel" depart="141" from="-333061573#2" to="-28228803#0"/>
	<trip id="test_trip_90" type="fuel" depart="141" from="8014829#0" to="30001818"/>
	<trip id="test_trip_91" type="electric" depart="142" from="-36726220#0" to="1039345572#0"/>
	<trip id="test_trip_92" type="fuel" depart="150" from="-36729017" to="77615981#0"/>
	<trip id="test_trip_93" type="fuel" depart="150" from="30001902" to="-315526580#1"/>
	<trip id="test_trip_94" type="fuel" depart="153" from="37282869#1" to="28228803#1"/>
	<trip id="test_trip_95" type="fuel" depart="153" from="114555768#1" to="342534666#1"/>
	<trip id="test_trip_96" type="electric" depart="156" from="-344789092" to="-37293912#0"/>
	<trip id="test_trip_97" type="fuel" depart="157" from="30956554#0" to="-37282869#0"/>
	<trip id="test_trip_98" type="fuel" depart="158" from="-47796503" to="37282869#1"/>
	<trip id="test_trip_99" type="fuel" depart="163" from="30903129#0" to="77615451#1"/>
	<trip id="test_trip_100" type="fuel" depart="166" from="28903078" to="30001816"/>
	<trip id="test_trip_101" type="fuel" depart="167" from="-15101963" to="61059623"/>
	<trip id="test_trip_102" type="fuel" depart="168" from="15245482" to="122948858#0"/>
	<trip id="test_trip_103" type="fuel" depart="169" from="81924134" to="61059606#0"/>
	<trip id="test_trip_104" type="fuel" depart="171" from="-122949520#1" to="746490375"/>
	<trip id="test_trip_105" type="electric" depart="171" from="-21081120#0" to="-317000784#1"/>
	<trip id="test_trip_106" type="fuel" depart="171" from="-114554800" to="23180033"/>
	<trip id="test_trip_107" type="fuel" depart="176" from="30955822" to="-21564980#0"/>
	<trip id="test_trip_108" type="fuel" depart="176" from="24479833" to="36729009"/>
	<trip id="test_trip_109" type="fuel" depart="177" from="332399561#2" to="114555768#1"/>
	<trip id="test_trip_110" type="fuel" depart="177" from="-122949522" to="-80727852"/>
	<trip id="test_trip_111" type="fuel" depart="178" from="15101963" to="114554764#2"/>
	<trip id="test_trip_112" type="fuel" depart="179" from="37280749" to="29400781"/>
	<trip id="test_trip_113" type="fuel" depart="181" from="123635329" to="-344789092"/>
	<trip id="test_trip_114" type="fuel" depart="182" from="7715843" to="36729010#1"/>
	<trip id="test_trip_115" type="fuel" depart="186" from="30568275#0" to="114555768#1"/>
	<trip id="test_trip_116" type="fuel" depart="186" from="23025219#0" to="-44960714#1"/>
	<trip id="test_trip_117" type="electric" depart="187" from="342717767#1" to="-1066551973"/>
	<trip id="test_trip_118" type="electric" depart="188" from="317000783" to="62201341#1"/>
	<trip id="test_trip_119" type="fuel" depart="190" from="30001818" to="126895736"/>
	<trip id="test_trip_120" type="fuel" depart="193" from="-314642995#0" to="28586048"/>
	<trip id="test_trip_121" type="fuel" depart="194" from="30263579" to="-101154827"/>
	<trip id="test_trip_122" type="fuel" depart="196" from="24479683" to="-81527789#0"/>
	<trip id="test_trip_123" type="fuel" depart="197" from="-28842830" to="28408345"/>
	<trip id="test_trip_124" type="fuel" depart="200" from="28408345" to="37137191#0"/>
	<trip id="test_trip_125" type="fuel" depart="200" from="-21081120#0" to="33887120"/>
	<trip id="test_trip_126" type="fuel" depart="201" from="15101958" to="77615451#0"/>
	<trip id="test_trip_127" type="fuel" depart="204" from="22486710" to="123635330"/>
	<trip id="test_trip_128" type="fuel" depart="204" from="-1066551973" to="-80727853"/>
	<trip id="test_trip_129" type="electric" depart="205" from="33887120" to="86533509#0"/>
	<trip id="test_trip_130" type="electric" depart="206" from="-42919373#0" to="23180032"/>
	<trip id="test_trip_131" type="electric" depart="209" from="122949524#1" to="9776916"/>
	<trip id="test_trip_132" type="fuel" depart="212" from="-42919373#0" to="317000783"/>
	<trip id="test_trip_133" type="fuel" depart="214" from="-126894678#0" to="572656872#0"/>
	<trip id="test_trip_134" type="fuel" depart="214" from="25522290#0" to="-186631612#0"/>
	<trip id="test_trip_135" type="fuel" depart="215" from="-81924137#0" to="333061574#1"/>
	<trip id="test_trip_136" type="electric" depart="216" from="122949520#0" to="122949524#1"/>
	<trip id="test_trip_137" type="fuel" depart="218" from="-333061573#2" to="342717767#1"/>
	<trip id="test_trip_138" type="fuel" depart="220" from="29400781" to="-126897923#0"/>
	<trip id="test_trip_139" type="electric" depart="222" from="-47796503" to="38156742"/>
	<trip id="test_trip_140" type="electric" depart="223" from="-125602434" to="30955822"/>
	<trip id="test_trip_141" type="fuel" depart="224" from="30001902" to="-28228803#1"/>
	<trip id="test_trip_142" type="fuel" depart="227" from="29064946#0" to="126894676#1"/>
	<trip id="test_trip_143" type="electric" depart="227" from="28903078" to="30001818"/>
	<trip id="test_trip_144" type="fuel" depart="228" from="234100501#2" to="-36729010#0"/>
	<trip id="test_trip_145" type="fuel" depart="230" from="-114554759#0" to="-28842830"/>
	<trip id="test_trip_146" type="fuel" depart="233" from="-125602434" to="128916509"/>
	<trip id="test_trip_147" type="electric" depart="236" from="36729011#1" to="86533504"/>
	<trip id="test_trip_148" type="fuel" depart="238" from="-28228803#0" to="217644150"/>
	<trip id="test_trip_149" type="fuel" depart="239" from="81924141#1" to="-44960714#1"/>
	<trip id="test_trip_150" type="fuel" depart="240" from="-86533506#1" to="317000783"/>
	<trip id="test_trip_151" type="fuel" depart="241" from="36726221#0" to="122949524#1"/>
	<trip id="test_trip_152" type="fuel" depart="244" from="28546082" to="-141320983"/>
	<trip id="test_trip_153" type="fuel" depart="246" from="30529623" to="123911189#0"/>
	<trip id="test_trip_154" type="fuel" depart="246" from="-126894682#0" to="195828013"/>
	<trip id="test_trip_155" type="fuel" depart="248" from="30001816" to="-101154827"/>
	<trip id="test_trip_156" type="electric" depart="250" from="-122949520#0" to="15103120"/>
	<trip id="test_trip_157" type="electric" depart="253" from="-1066551973" to="315526581#2"/>
	<trip id="test_trip_158" type="electric" depart="259" from="44960714#0" to="-333061573#2"/>
	<trip id="test_trip_159" type="fuel" depart="260" from="128916502" to="128916509"/>
	<trip id="test_trip_160" type="fuel" depart="260" from="29064946#0" to="23180033"/>
	<trip id="test_trip_161" type="fuel" depart="261" from="25522290#0" to="-28228803#0"/>
	<trip id="test_trip_162" type="fuel" depart="262" from="-333061573#2" to="36729011#1"/>
	<trip id="test_trip_163" type="electric" depart="266" from="-1066551973" to="-21081120#0"/>
	<trip id="test_trip_164" type="fuel" depart="275" from="24673382" to="26692016"/>
	<trip id="test_trip_165" type="fuel" depart="276" from="80702168#1" to="80702170#1"/>
	<trip id="test_trip_166" type="fuel" depart="278" from="122948203" to="82410880#1"/>
	<trip id="test_trip_167" type="fuel" depart="278" from="9776916" to="-37287288"/>
	<trip id="test_trip_168" type="fuel" depart="279" from="62201341#1" to="8014829#1"/>
	<trip id="test_trip_169" type="fuel" depart="281" from="123635329" to="30528320#0"/>
	<trip id="test_trip_170" type="fuel" depart="282" from="-9776916" to="-36729010#0"/>
	<trip id="test_trip_171" type="fuel" depart="282" from="-344789092" to="7715843"/>
	<trip id="test_trip_172" type="fuel" depart="291" from="126894676#1" to="23180033"/>
	<trip id="test_trip_173" type="fuel" depart="294" from="15245482" to="21564980#1"/>
	<trip id="test_trip_174" type="electric" depart="294" from="-37287288" to="333061574#1"/>
	<trip id="test_trip_175" type="fuel" depart="294" from="81527789#1" to="28586048"/>
	<trip id="test_trip_176" type="electric" depart="296" from="217189186#0" to="30001818"/>
	<trip id="test_trip_177" type="fuel" depart="297" from="128916502" to="86533504"/>
	<trip id="test_trip_178" type="fuel" depart="300" from="-314403237#1" to="-80727852"/>
	<trip id="test_trip_179" type="electric" depart="300" from="572656879" to="15223910#0"/>
	<trip id="test_trip_180" type="fuel" depart="301" from="-36726220#0" to="-317000784#1"/>
	<trip id="test_trip_181" type="fuel" depart="302" from="-126894676#0" to="114554759#1"/>
	<trip id="test_trip_182" type="fuel" depart="305" from="36729015#1" to="114555768#1"/>
	<trip id="test_trip_183" type="fuel" depart="314" from="7715843" to="7920348"/>
	<trip id="test_trip_184" type="fuel" depart="314" from="15090664" to="-37293912#0"/>
	<trip id="test_trip_185" type="fuel" depart="314" from="7715843" to="30528320#0"/>
	<trip id="test_trip_186" type="fuel" depart="317" from="-80727853" to="-21081120#0"/>
	<trip id="test_trip_187" type="electric" depart="318" from="37293912#1" to="15223910#0"/>
	<trip id="test_trip_188" type="fuel" depart="320" from="22486710" to="-76335649"/>
	<trip id="test_trip_189" type="electric" depart="323" from="122949524#1" to="-114554802#2"/>
	<trip id="test_trip_190" type="fuel" depart="325" from="81522820#1" to="-126897923#0"/>
	<trip id="test_trip_191" type="fuel" depart="326" from="205434518" to="82410880#1"/>
	<trip id="test_trip_192" type="fuel" depart="328" from="30260452" to="58077048#0"/>
	<trip id="test_trip_193" type="electric" depart="328" from="42107700#1" to="30956554#0"/>
	<trip id="test_trip_194" type="electric" depart="328" from="23025219#0" to="24673380"/>
	<trip id="test_trip_195" type="fuel" depart="330" from="86533504" to="42107700#1"/>
	<trip id="test_trip_196" type="fuel" depart="332" from="-186631612#0" to="-80727853"/>
	<trip id="test_trip_197" type="fuel" depart="334" from="62212736#2" to="114554779#1"/>
	<trip id="test_trip_198" type="fuel" depart="337" from="4236349" to="24479683"/>
	<trip id="test_trip_199" type="electric" depart="341" from="-344789082" to="-23180036"/>
	<trip id="test_trip_200" type="fuel" depart="341" from="-36726220#0" to="8014829#1"/>
	<trip id="test_trip_201" type="fuel" depart="344" from="572656879" to="21081120#1"/>
	<trip id="test_trip_202" type="fuel" depart="345" from="-37290602" to="30001816"/>
	<trip id="test_trip_203" type="fuel" depart="346" from="114554764#2" to="114554759#1"/>
	<trip id="test_trip_204" type="fuel" depart="347" from="-36729010#0" to="37260960"/>
	<trip id="test_trip_205" type="fuel" depart="348" from="28228803#1" to="81522820#1"/>
	<trip id="test_trip_206" type="fuel" depart="350" from="-186631612#0" to="-86533506#1"/>
	<trip id="test_trip_207" type="fuel" depart="350" from="28546082" to="77615451#1"/>
	<trip id="test_trip_208" type="fuel" depart="352" from="210000435" to="-76335649"/>
	<trip id="test_trip_209" type="electric" depart="352" from="126894676#1" to="80702170#1"/>
	<trip id="test_trip_210" type="fuel" depart="354" from="-126895740" to="28228803#1"/>
	<trip id="test_trip_211" type="fuel" depart="360" from="-76335649" to="123911189#0"/>
	<trip id="test_trip_212" type="fuel" depart="361" from="81924141#1" to="18385008#0"/>
	<trip id="test_trip_213" type="fuel" depart="364" from="315526581#2" to="15103120"/>
	<trip id="test_trip_214" type="fuel" depart="365" from="1066551973" to="114554779#1"/>
	<trip id="test_trip_215" type="fuel" depart="366" from="-114554802#2" to="234100501#2"/>
	<trip id="test_trip_216" type="electric" depart="368" from="126895736" to="-77465095#1"/>
	<trip id="test_trip_217" type="fuel" depart="368" from="86533509#0" to="36729009"/>
	<trip id="test_trip_218" type="fuel" depart="376" from="-333061574#0" to="30001818"/>
	<trip id="test_trip_219" type="fuel" depart="378" from="210000435" to="37287290"/>
	<trip id="test_trip_220" type="fuel" depart="380" from="-42919365" to="25521359"/>
	<trip id="test_trip_221" type="fuel" depart="381" from="-82410880#0" to="37293912#1"/>
	<trip id="test_trip_222" type="fuel" depart="381" from="80702168#1" to="15223910#0"/>
	<trip id="test_trip_223" type="electric" depart="384" from="15245482" to="-141320983"/>
	<trip id="test_trip_224" type="electric" depart="384" from="572656879" to="58077051"/>
	<trip id="test_trip_225" type="fuel" depart="384" from="-314642995#0" to="23180032"/>
	<trip id="test_trip_226" type="fuel" depart="384" from="33887120" to="370070636"/>
	<trip id="test_trip_227" type="fuel" depart="385" from="126894682#1" to="317000783"/>
	<trip id="test_trip_228" type="fuel" depart="386" from="217644146" to="-126894682#1"/>
	<trip id="test_trip_229" type="fuel" depart="389" from="28408160#0" to="217644150"/>
	<trip id="test_trip_230" type="electric" depart="389" from="-37293912#0" to="205434518"/>
	<trip id="test_trip_231" type="fuel" depart="390" from="22486710" to="-37282869#0"/>
	<trip id="test_trip_232" type="fuel" depart="390" from="-344789082" to="-37293912#0"/>
	<trip id="test_trip_233" type="fuel" depart="391" from="-37293912#0" to="-37282869#0"/>
	<trip id="test_trip_234" type="electric" depart="391" from="-122949522" to="9776916"/>
	<trip id="test_trip_235" type="fuel" depart="393" from="128916509" to="23025219#0"/>
	<trip id="test_trip_236" type="fuel" depart="395" from="-37282871#1" to="61059606#0"/>
	<trip id="test_trip_237" type="fuel" depart="396" from="30001818" to="81924134"/>
	<trip id="test_trip_238" type="fuel" depart="398" from="217189185#0" to="-36729030"/>
	<trip id="test_trip_239" type="fuel" depart="399" from="44960714#0" to="38156742"/>
	<trip id="test_trip_240" type="fuel" depart="400" from="-36726220#0" to="30956219#1"/>
	<trip id="test_trip_241" type="fuel" depart="402" from="122949524#0" to="739515975"/>
	<trip id="test_trip_242" type="fuel" depart="403" from="-114557570" to="37287290"/>
	<trip id="test_trip_243" type="fuel" depart="404" from="122949524#0" to="24673382"/>
	<trip id="test_trip_244" type="fuel" depart="404" from="82410880#1" to="126895736"/>
	<trip id="test_trip_245" type="electric" depart="408" from="123635329" to="81924141#1"/>
	<trip id="test_trip_246" type="fuel" depart="409" from="-122949522" to="333061574#1"/>
	<trip id="test_trip_247" type="fuel" depart="413" from="-114554779#0" to="122946787#0"/>
	<trip id="test_trip_248" type="electric" depart="416" from="-42919373#0" to="-36729011#0"/>
	<trip id="test_trip_249" type="fuel" depart="417" from="127104869#0" to="33887120"/>
	<trip id="test_trip_250" type="electric" depart="418" from="82410880#1" to="-126894682#0"/>
	<trip id="test_trip_251" type="electric" depart="418" from="15101963" to="-15101963"/>
	<trip id="test_trip_252" type="fuel" depart="418" from="60710546#0" to="-344789092"/>
	<trip id="test_trip_253" type="fuel" depart="419" from="122948858#0" to="29186154#1"/>
	<trip id="test_trip_254" type="electric" depart="419" from="29064946#0" to="-36729011#0"/>
	<trip id="test_trip_255" type="fuel" depart="420" from="-126894682#1" to="8014829#0"/>
	<trip id="test_trip_256" type="fuel" depart="421" from="-315526580#1" to="77615982"/>
	<trip id="test_trip_257" type="fuel" depart="421" from="-28228803#0" to="-36729010#0"/>
	<trip id="test_trip_258" type="electric" depart="422" from="61059606#0" to="58077048#0"/>
	<trip id="test_trip_259" type="fuel" depart="424" from="28408345" to="36729009"/>
	<trip id="test_trip_260" type="fuel" depart="424" from="122957398" to="-186631612#0"/>
	<trip id="test_trip_261" type="fuel" depart="424" from="62212739#0" to="82410875"/>
	<trip id="test_trip_262" type="fuel" depart="425" from="333061574#1" to="217644146"/>
	<trip id="test_trip_263" type="fuel" depart="426" from="62201341#1" to="194388451#0"/>
	<trip id="test_trip_264" type="fuel" depart="427" from="8014829#1" to="-344789092"/>
	<trip id="test_trip_265" type="fuel" depart="427" from="-217644146" to="-37282869#1"/>
	<trip id="test_trip_266" type="fuel" depart="429" from="42107699#0" to="-37290602"/>
	<trip id="test_trip_267" type="electric" depart="430" from="28546082" to="122948858#0"/>
	<trip id="test_trip_268" type="fuel" depart="431" from="-82410880#0" to="122946787#0"/>
	<trip id="test_trip_269" type="fuel" depart="433" from="37287290" to="217644146"/>
	<trip id="test_trip_270" type="fuel" depart="437" from="-80727852" to="114554802#3"/>
	<trip id="test_trip_271" type="electric" depart="439" from="33887120" to="29400781"/>
	<trip id="test_trip_272" type="fuel" depart="440" from="310792148" to="-36729011#0"/>
	<trip id="test_trip_273" type="fuel" depart="446" from="-217644146" to="82410880#1"/>
	<trip id="test_trip_274" type="fuel" depart="447" from="86533504" to="114554779#1"/>
	<trip id="test_trip_275" type="fuel" depart="453" from="-36729010#0" to="-42919373#0"/>
	<trip id="test_trip_276" type="fuel" depart="454" from="86533509#0" to="-114554802#2"/>
	<trip id="test_trip_277" type="fuel" depart="454" from="-126894678#3" to="-114554800"/>
	<trip id="test_trip_278" type="fuel" depart="454" from="128916509" to="30528320#0"/>
	<trip id="test_trip_279" type="fuel" depart="456" from="-101154827" to="7920348"/>
	<trip id="test_trip_280" type="fuel" depart="457" from="37142312" to="-29186154#0"/>
	<trip id="test_trip_281" type="electric" depart="460" from="30956554#0" to="30903129#0"/>
	<trip id="test_trip_282" type="fuel" depart="462" from="36729015#1" to="8014829#0"/>
	<trip id="test_trip_283" type="electric" depart="463" from="195828013" to="28408345"/>
	<trip id="test_trip_284" type="fuel" depart="463" from="-23180036" to="-29186154#0"/>
	<trip id="test_trip_285" type="fuel" depart="465" from="333061574#1" to="-126894678#3"/>
	<trip id="test_trip_286" type="fuel" depart="466" from="123635329" to="1066551973"/>
	<trip id="test_trip_287" type="electric" depart="467" from="21564980#0" to="126894678#1"/>
	<trip id="test_trip_288" type="fuel" depart="473" from="186631612#1" to="77615981#0"/>
	<trip id="test_trip_289" type="fuel" depart="474" from="-122949520#0" to="37137191#0"/>
	<trip id="test_trip_290" type="fuel" depart="476" from="315526581#2" to="342717767#1"/>
	<trip id="test_trip_291" type="fuel" depart="477" from="333061574#1" to="-80727853"/>
	<trip id="test_trip_292" type="electric" depart="477" from="-126894678#0" to="-80727853"/>
	<trip id="test_trip_293" type="electric" depart="477" from="37280749" to="9776916"/>
	<trip id="test_trip_294" type="fuel" depart="478" from="-42919373#0" to="122948203"/>
	<trip id="test_trip_295" type="fuel" depart="478" from="36726220#1" to="24479683"/>
	<trip id="test_trip_296" type="fuel" depart="478" from="-114554779#0" to="-80727852"/>
	<trip id="test_trip_297" type="fuel" depart="480" from="30956554#0" to="-317000783"/>
	<trip id="test_trip_298" type="fuel" depart="481" from="-344789082" to="-21564980#0"/>
	<trip id="test_trip_299" type="fuel" depart="482" from="7715843" to="15245482"/>
	<trip id="test_trip_300" type="electric" depart="485" from="-315526580#1" to="-28228803#0"/>
	<trip id="test_trip_301" type="fuel" depart="485" from="314642995#1" to="36729009"/>
	<trip id="test_trip_302" type="fuel" depart="486" from="746490375" to="30001818"/>
	<trip id="test_trip_303" type="fuel" depart="492" from="60710546#0" to="-28228803#1"/>
	<trip id="test_trip_304" type="fuel" depart="492" from="-37290602" to="122949524#1"/>
	<trip id="test_trip_305" type="fuel" depart="494" from="-122949520#1" to="24479833"/>
	<trip id="test_trip_306" type="fuel" depart="497" from="24479683" to="-82410880#0"/>
	<trip id="test_trip_307" type="fuel" depart="498" from="195828013" to="61059623"/>
	<trip id="test_trip_308" type="electric" depart="498" from="24479686#0" to="-317000784#1"/>
	<trip id="test_trip_309" type="fuel" depart="499" from="-36729030" to="61059606#0"/>
	<trip id="test_trip_310" type="fuel" depart="503" from="-37282871#1" to="37293912#1"/>
	<trip id="test_trip_311" type="electric" depart="504" from="62212739#0" to="-101154827"/>
	<trip id="test_trip_312" type="fuel" depart="508" from="217189185#0" to="9776916"/>
	<trip id="test_trip_313" type="fuel" depart="511" from="128916502" to="-28228803#0"/>
	<trip id="test_trip_314" type="fuel" depart="513" from="128916502" to="24479683"/>
	<trip id="test_trip_315" type="electric" depart="514" from="-81527789#0" to="7920348"/>
	<trip id="test_trip_316" type="fuel" depart="515" from="-217644146" to="114554759#1"/>
	<trip id="test_trip_317" type="electric" depart="515" from="-37293912#0" to="58077048#0"/>
	<trip id="test_trip_318" type="fuel" depart="516" from="122949520#0" to="-37290602"/>
	<trip id="test_trip_319" type="electric" depart="516" from="30001818" to="61059606#0"/>
	<trip id="test_trip_320" type="fuel" depart="517" from="15101958" to="80702170#1"/>
	<trip id="test_trip_321" type="fuel" depart="519" from="36729010#1" to="-122949524#0"/>
	<trip id="test_trip_322" type="fuel" depart="520" from="123635330" to="81527789#1"/>
	<trip id="test_trip_323" type="fuel" depart="522" from="127104869#0" to="-42919373#0"/>
	<trip id="test_trip_324" type="electric" depart="526" from="37260960" to="22486710"/>
	<trip id="test_trip_325" type="electric" depart="527" from="8014829#1" to="-37282869#0"/>
	<trip id="test_trip_326" type="fuel" depart="528" from="24479683" to="122962417"/>
	<trip id="test_trip_327" type="fuel" depart="530" from="81527192" to="-21081120#0"/>
	<trip id="test_trip_328" type="fuel" depart="531" from="81527192" to="30956554#0"/>
	<trip id="test_trip_329" type="fuel" depart="531" from="37260960" to="30529623"/>
	<trip id="test_trip_330" type="fuel" depart="532" from="8014829#0" to="310792148"/>
	<trip id="test_trip_331" type="fuel" depart="533" from="210000435" to="-217644146"/>
	<trip id="test_trip_332" type="fuel" depart="539" from="-333061574#0" to="9776916"/>
	<trip id="test_trip_333" type="fuel" depart="539" from="60710546#0" to="37290604"/>
	<trip id="test_trip_334" type="fuel" depart="540" from="1039345572#0" to="15223910#0"/>
	<trip id="test_trip_335" type="fuel" depart="547" from="-314642995#0" to="30955822"/>
	<trip id="test_trip_336" type="electric" depart="549" from="24673380" to="-37282869#0"/>
	<trip id="test_trip_337" type="electric" depart="549" from="-126894676#0" to="23025219#0"/>
	<trip id="test_trip_338" type="electric" depart="551" from="-76335649" to="342534666#1"/>
	<trip id="test_trip_339" type="electric" depart="552" from="122948858#0" to="-37282869#0"/>
	<trip id="test_trip_340" type="fuel" depart="553" from="-21564980#0" to="29186154#1"/>