<?xml version="1.0" encoding="utf-8"?>
<routes>
 <trip depart="1.0" departLane="best" departSpeed="max" from="321098632#1" id="rs_c001_i000_0" to="72728806"/>
 <trip depart="1.0" departLane="best" departSpeed="max" from="-30140997" id="rs_c000_i000_9" to="34776006"/>
 <trip depart="4.0" departLane="best" departSpeed="max" from="-26037066" id="rs_c000_i000_49" to="58423646"/>
 <trip depart="5.0" departLane="best" departSpeed="max" from="116049443#1" id="rs_c000_i000_59" to="26187755#0"/>
 <trip depart="10.0" departLane="best" departSpeed="max" from="-10420635#1" id="rs_c000_i001_10" to="133114633"/>
 <trip depart="12.0" departLane="best" departSpeed="max" from="-217548735" id="rs_c000_i000_137" to="34760663"/>
 <trip depart="17.0" departLane="best" departSpeed="max" from="-137996247" id="rs_c000_i000_194" to="58423646"/>
 <trip depart="17.0" departLane="best" departSpeed="max" from="35722785#1" id="rs_c000_i000_202" to="16820737#0"/>
 <trip depart="18.0" departLane="best" departSpeed="max" from="-63134322#1" id="rs_c001_i000_31" to="117654824#0"/>
 <trip depart="18.0" departLane="best" departSpeed="max" from="26959985" id="rs_c000_i000_209" to="17244796"/>
 <trip depart="19.0" departLane="best" departSpeed="max" from="77606148#1" id="rs_c000_i000_231" to="17244796"/>
 <trip depart="25.0" departLane="best" departSpeed="max" from="-122529110" id="rs_c000_i000_296" to="26187755#0"/>
 <trip depart="25.0" departLane="best" departSpeed="max" from="56253839" id="rs_c000_i000_303" to="25980639"/>
 <trip depart="26.0" departLane="best" departSpeed="max" from="-212694593#3" id="rs_c000_i000_139" to="26187755#0"/>
 <trip depart="33.0" departLane="best" departSpeed="max" from="-369150317#0" id="rs_c000_i000_381" to="26187757#1"/>
 <trip depart="34.0" departLane="best" departSpeed="max" from="1080298604" id="rs_c001_i000_68" to="72728808"/>
 <trip depart="35.0" departLane="best" departSpeed="max" from="-35155912" id="rs_c001_i000_69" to="35061798"/>
 <trip depart="37.0" departLane="best" departSpeed="max" from="4238028#0" id="rs_c001_i000_79" to="133114633"/>
 <trip depart="41.0" departLane="best" departSpeed="max" from="-579053759" id="rs_c000_i000_476" to="206350041"/>
 <trip depart="47.0" departLane="best" departSpeed="max" from="703967713" id="rs_c001_i000_103" to="72728806"/>
 <trip depart="53.0" departLane="best" departSpeed="max" from="-116049443#1" id="rs_c000_i001_71" to="26187755#0"/>
 <trip depart="54.0" departLane="best" departSpeed="max" from="122529104#4" id="rs_c000_i000_635" to="26187755#0"/>
 <trip depart="55.0" departLane="best" departSpeed="max" from="-61566225#0" id="rs_c000_i000_653" to="-94124135"/>
 <trip depart="56.0" departLane="best" departSpeed="max" from="190721768#1" id="rs_c000_i000_665" to="34760663"/>
 <trip depart="57.0" departLane="best" departSpeed="max" from="209237468" id="rs_c000_i000_672" to="102332987#0"/>
 <trip depart="57.0" departLane="best" departSpeed="max" from="-84017983" id="rs_c000_i000_678" to="39139679"/>
 <trip depart="60.0" departLane="best" departSpeed="max" from="-15242127#1" id="rs_c000_i000_711" to="582286859#0"/>
 <trip depart="60.0" departLane="best" departSpeed="max" from="8597240" id="rs_c001_i001_17" to="72728806"/>
 <trip depart="61.0" departLane="best" departSpeed="max" from="-212690606" id="rs_c000_i001_86" to="60752388"/>
 <trip depart="61.0" departLane="best" departSpeed="max" from="-237367539" id="rs_c000_i000_716" to="237496662"/>
 <trip depart="65.0" departLane="best" departSpeed="max" from="-4872089" id="rs_c000_i000_763" to="34760663"/>
 <trip depart="67.0" departLane="best" departSpeed="max" from="-118869284#0" id="rs_c000_i000_782" to="144246396#1"/>
 <trip depart="67.0" departLane="best" departSpeed="max" from="4238091#1" id="rs_c001_i000_151" to="102332987#0"/>
 <trip depart="69.0" departLane="best" departSpeed="max" from="364419352#0" id="rs_c000_i000_810" to="133114633"/>
 <trip depart="70.0" departLane="best" departSpeed="max" from="-32016029#2" id="rs_c001_i000_156" to="34760663"/>
 <trip depart="73.0" departLane="best" departSpeed="max" from="71284390#0" id="rs_c000_i001_104" to="206350041"/>
 <trip depart="74.0" departLane="best" departSpeed="max" from="100016823#2" id="rs_c000_i000_866" to="30707088#0"/>
 <trip depart="75.0" departLane="best" departSpeed="max" from="-328253309#0" id="rs_c000_i001_110" to="58422788#0-AddedOffRampEdge"/>
 <trip depart="80.0" departLane="best" departSpeed="max" from="-62419359#0" id="rs_c001_i001_22" to="34760663"/>
 <trip depart="83.0" departLane="best" departSpeed="max" from="-212694593#3" id="rs_c000_i000_532" to="26187755#0"/>
 <trip depart="86.0" departLane="best" departSpeed="max" from="4353778#0" id="rs_c000_i000_982" to="58423646"/>
 <trip depart="86.0" departLane="best" departSpeed="max" from="-62064349" id="rs_c001_i000_187" to="-94124135"/>
 <trip depart="87.0" departLane="best" departSpeed="max" from="117589024" id="rs_c000_i000_1004" to="30707088#0"/>
 <trip depart="90.0" departLane="best" departSpeed="max" from="51340803#0" id="rs_c001_i000_189" to="35062429#0"/>
 <trip depart="90.0" departLane="best" departSpeed="max" from="-58767757#1" id="rs_c001_i000_195" to="34760663"/>
 <trip depart="94.0" departLane="best" departSpeed="max" from="-95937723" id="rs_c000_i001_93" to="26187755#0"/>
 <trip depart="103.0" departLane="best" departSpeed="max" from="358697049#0" id="rs_c000_i000_1186" to="133114633"/>
 <trip depart="103.0" departLane="best" departSpeed="max" from="642129591" id="rs_c000_i000_1189" to="102332987#0"/>
 <trip depart="103.0" departLane="best" departSpeed="max" from="-4361529#0" id="rs_c001_i002_4" to="24428921"/>
 <trip depart="104.0" departLane="best" departSpeed="max" from="4238091#1" id="rs_c000_i000_521" to="102332987#0"/>
 <trip depart="109.0" departLane="best" departSpeed="max" from="6935285#0" id="rs_c000_i000_1228" to="102332987#0"/>
 <trip depart="110.0" departLane="best" departSpeed="max" from="-117099159#3" id="rs_c000_i000_1243" to="132793806"/>
 <trip depart="118.0" departLane="best" departSpeed="max" from="-87397780" id="rs_c000_i000_1330" to="582286859#0"/>
 <trip depart="118.0" departLane="best" departSpeed="max" from="-62513944#0" id="rs_c000_i000_1339" to="10621055"/>
 <trip depart="124.0" departLane="best" departSpeed="max" from="310738357" id="rs_c001_i000_253" to="582286859#0"/>
 <trip depart="128.0" departLane="best" departSpeed="max" from="-118155453" id="rs_c000_i001_193" to="58423646"/>
 <trip depart="137.0" departLane="best" departSpeed="max" from="-314424813" id="rs_c000_i000_1534" to="41882139"/>
 <trip depart="142.0" departLane="best" departSpeed="max" from="26085515#5" id="rs_c000_i000_1609" to="58423646"/>
 <trip depart="144.0" departLane="best" departSpeed="max" from="4229458#0" id="rs_c001_i000_292" to="-195898177"/>
 <trip depart="145.0" departLane="best" departSpeed="max" from="285621683" id="rs_c000_i000_1638" to="138914231#0"/>
 <trip depart="145.0" departLane="best" departSpeed="max" from="-83510232#0" id="rs_c000_i001_218" to="72728806"/>
 <trip depart="146.0" departLane="best" departSpeed="max" from="-328040089" id="rs_c000_i000_1649" to="5091199"/>
 <trip depart="148.0" departLane="best" departSpeed="max" from="-95937723" id="rs_c000_i000_551" to="26187755#0"/>
 <trip depart="148.0" departLane="best" departSpeed="max" from="137996244#0" id="rs_c000_i000_1675" to="24428921"/>
 <trip depart="149.0" departLane="best" departSpeed="max" from="30529010#1" id="rs_c000_i001_219" to="5235877"/>
 <trip depart="151.0" departLane="best" departSpeed="max" from="-28918381#4" id="rs_c000_i000_1713" to="16820737#0"/>
 <trip depart="152.0" departLane="best" departSpeed="max" from="-333144425" id="rs_c001_i001_35" to="60752388"/>
 <trip depart="154.0" departLane="best" departSpeed="max" from="-95937943#2" id="rs_c000_i000_1419_part1" to="24428921"/>
 <trip depart="156.0" departLane="best" departSpeed="max" from="-78312368" id="rs_c001_i000_320" to="72728806"/>
 <trip depart="157.0" departLane="best" departSpeed="max" from="-95937723" id="rs_c000_i000_460" to="26187755#0"/>
 <trip depart="157.0" departLane="best" departSpeed="max" from="-62064347" id="rs_c000_i000_1766" to="34760663"/>
 <trip depart="160.0" departLane="best" departSpeed="max" from="-10502291#1" id="rs_c000_i001_240" to="5235877"/>
 <trip depart="164.0" departLane="best" departSpeed="max" from="-118869284#1" id="rs_c000_i000_1842" to="144246396#1"/>
 <trip depart="169.0" departLane="best" departSpeed="max" from="125351183" id="rs_c001_i000_337" to="26187755#0"/>
 <trip depart="170.0" departLane="best" departSpeed="max" from="136721678" id="rs_c000_i000_1908" to="58423646"/>
 <trip depart="172.0" departLane="best" departSpeed="max" from="-24423403#10" id="rs_c000_i001_252" to="144246396#1"/>
 <trip depart="177.0" departLane="best" departSpeed="max" from="6935285#0" id="rs_c000_i000_1968" to="72728808"/>
 <trip depart="181.0" departLane="best" departSpeed="max" from="118869284#0" id="rs_c000_i000_2018" to="26187755#0"/>
 <trip depart="184.0" departLane="best" departSpeed="max" from="10426113#0" id="rs_c000_i001_279_part0" to="5235877"/>
 <trip depart="189.0" departLane="best" departSpeed="max" from="632149254#0" id="rs_c000_i000_2088" to="72728806"/>
 <trip depart="193.0" departLane="best" departSpeed="max" from="10500974" id="rs_c001_i000_370" to="35062429#0"/>
 <trip depart="194.0" departLane="best" departSpeed="max" from="-379530234" id="rs_c001_i001_48" to="607800580"/>
 <trip depart="195.0" departLane="best" departSpeed="max" from="-10426011#1" id="rs_c000_i000_2147" to="139124541#0"/>
 <trip depart="200.0" departLane="best" departSpeed="max" from="4238091#1" id="rs_c001_i000_307" to="102332987#0"/>
 <trip depart="201.46" departLane="best" departSpeed="max" from="364586640#1" id="rs_c000_i000_1814" to="530282943"/>
 <trip depart="202.0" departLane="best" departSpeed="max" from="-95937723" id="rs_c000_i000_1618" to="26187755#0"/>
 <trip depart="207.0" departLane="best" departSpeed="max" from="-61645644" id="rs_c000_i000_2288" to="116350100"/>
 <trip depart="209.0" departLane="best" departSpeed="max" from="-765843955" id="rs_c000_i000_2309" to="17244796"/>
 <trip depart="211.0" departLane="best" departSpeed="max" from="367315282" id="rs_c000_i000_2330" to="133114633"/>
 <trip depart="214.0" departLane="best" departSpeed="max" from="-369150317#0" id="rs_c000_i000_2371" to="58423646"/>
 <trip depart="216.0" departLane="best" departSpeed="max" from="-116049442" id="rs_c000_i000_2391" to="26187757#1"/>
 <trip depart="217.0" departLane="best" departSpeed="max" from="4238091#1" id="rs_c000_i001_213" to="102332987#0"/>
 <trip depart="219.0" departLane="best" departSpeed="max" from="-26165754#2" id="rs_c001_i000_427" to="58423646"/>
 <trip depart="221.0" departLane="best" departSpeed="max" from="-8058345" id="rs_c001_i000_433" to="-5137908#0"/>
 <trip depart="221.0" departLane="best" departSpeed="max" from="-117589022#2" id="rs_c000_i000_2442" to="30707088#0"/>
 <trip depart="222.0" departLane="best" departSpeed="max" from="4238091#1" id="rs_c001_i000_378" to="-94124135"/>
 <trip depart="232.0" departLane="best" departSpeed="max" from="-212687129#1" id="rs_c001_i000_455" to="60752388"/>
 <trip depart="234.0" departLane="best" departSpeed="max" from="-10426057" id="rs_c000_i000_2577" to="35062429#0"/>
 <trip depart="234.0" departLane="best" departSpeed="max" from="-61371685#0" id="rs_c000_i000_2581" to="41882139"/>
 <trip depart="238.0" departLane="best" departSpeed="max" from="117099147#0" id="rs_c000_i000_2613" to="58423646"/>
 <trip depart="241.0" departLane="best" departSpeed="max" from="-20179292#0" id="rs_c000_i000_2655" to="530282943"/>
 <trip depart="242.0" departLane="best" departSpeed="max" from="97097111#1" id="rs_c001_i001_59" to="41882139"/>
 <trip depart="242.0" departLane="best" departSpeed="max" from="-10516147#0" id="rs_c000_i000_2662" to="-124537762"/>
 <trip depart="242.12" departLane="best" departSpeed="max" from="582286858#1" id="rs_c001_i001_10" to="51667067#0"/>
 <trip depart="243.0" departLane="best" departSpeed="max" from="169313833#0" id="rs_c000_i000_2668" to="26187755#0"/>
 <trip depart="244.0" departLane="best" departSpeed="max" from="212687129#2" id="rs_c001_i000_475" to="35062429#0"/>
 <trip depart="246.0" departLane="best" departSpeed="max" from="24423403#2" id="rs_c000_i000_2701" to="144246396#1"/>
 <trip depart="251.0" departLane="best" departSpeed="max" from="-10425883" id="rs_c000_i000_2756" to="35062429#0"/>
 <trip depart="252.0" departLane="best" departSpeed="max" from="-62070348" id="rs_c001_i000_491" to="61720106"/>
 <trip depart="258.0" departLane="best" departSpeed="max" from="5091229" id="rs_c000_i000_2838" to="34760663"/>
 <trip depart="259.0" departLane="best" departSpeed="max" from="95100622" id="rs_c000_i000_2851" to="26187757#1"/>
 <trip depart="260.0" departLane="best" departSpeed="max" from="-15242129#0" id="rs_c000_i001_391" to="38455846"/>
 <trip depart="266.0" departLane="best" departSpeed="max" from="-212694591" id="rs_c000_i000_2921" to="26187755#0"/>
 <trip depart="267.0" departLane="best" departSpeed="max" from="166533654#1" id="rs_c000_i000_2936" to="139124541#0"/>
 <trip depart="269.0" departLane="best" departSpeed="max" from="-95937723" id="rs_c000_i002_31" to="26187755#0"/>
 <trip depart="270.0" departLane="best" departSpeed="max" from="4238006#0" id="rs_c000_i000_2989" to="237496662"/>
 <trip depart="273.0" departLane="best" departSpeed="max" from="94124202" id="rs_c001_i000_345" to="96718342"/>
 <trip depart="278.0" departLane="best" departSpeed="max" from="-5065975" id="rs_c000_i000_3069" to="34760663"/>
 <trip depart="283.0" departLane="best" departSpeed="max" from="703967713" id="rs_c001_i000_536" to="72728808"/>
 <trip depart="284.0" departLane="best" departSpeed="max" from="-95937723" id="rs_c000_i000_2416" to="26187755#0"/>
 <trip depart="298.0" departLane="best" departSpeed="max" from="-237367748#2" id="rs_c000_i000_3288" to="237496662"/>
 <trip depart="298.46" departLane="best" departSpeed="max" from="30692829" id="rs_c001_i000_117" to="607800580"/>
 <trip depart="301.0" departLane="best" departSpeed="max" from="-95937723" id="rs_c000_i001_185" to="26187755#0"/>
 <trip depart="303.0" departLane="best" departSpeed="max" from="-138350778#0" id="rs_c000_i000_3335" to="25980639"/>
 <trip depart="303.28" departLane="best" departSpeed="max" from="30714753#0" id="rs_c000_i000_324" to="58422788#0-AddedOffRampEdge"/>
 <trip depart="303.28" departLane="best" departSpeed="max" from="30714753#0" id="rs_c000_i002_21" to="58422788#0-AddedOffRampEdge"/>
 <trip depart="304.0" departLane="best" departSpeed="max" from="-125589533" id="rs_c001_i000_582" to="530282943"/>
 <trip depart="311.0" departLane="best" departSpeed="max" from="-79885356#0" id="rs_c000_i000_3423" to="25980639"/>
 <trip depart="311.0" departLane="best" departSpeed="max" from="-290255303#2" id="rs_c000_i000_3424" to="26187757#1"/>
 <trip depart="312.0" departLane="best" departSpeed="max" from="96934606" id="rs_c000_i000_3435" to="102332987#0"/>
 <trip depart="312.0" departLane="best" departSpeed="max" from="-24049140#1" id="rs_c000_i001_481" to="-124537762"/>
 <trip depart="314.0" departLane="best" departSpeed="max" from="349896687#1" id="rs_c000_i000_3457" to="582286859#0"/>
 <trip depart="315.0" departLane="best" departSpeed="max" from="-10425852" id="rs_c000_i001_487" to="35062429#0"/>
 <trip depart="316.0" departLane="best" departSpeed="max" from="-10425852" id="rs_c001_i000_602" to="35062429#0"/>
 <trip depart="317.0" departLane="best" departSpeed="max" from="-212694593#3" id="rs_c000_i000_3350" to="144246396#1"/>
 <trip depart="319.05" departLane="best" departSpeed="max" from="133113957#0" id="rs_c000_i000_131" to="25523330"/>
 <trip depart="321.0" departLane="best" departSpeed="max" from="358697049#2" id="rs_c000_i001_498" to="102332987#0"/>
 <trip depart="323.0" departLane="best" departSpeed="max" from="-108336183#2" id="rs_c000_i000_3572" to="34776006"/>
 <trip depart="325.0" departLane="best" departSpeed="max" from="188956290" id="rs_c000_i000_3587" to="16820737#0"/>
 <trip depart="326.0" departLane="best" departSpeed="max" from="-4238018#0" id="rs_c001_i000_613" to="133114633"/>
 <trip depart="326.0" departLane="best" departSpeed="max" from="807837521#2" id="rs_c001_i000_614" to="51667067#0"/>
 <trip depart="327.0" departLane="best" departSpeed="max" from="94124202" id="rs_c001_i001_74" to="16820737#0"/>
 <trip depart="327.0" departLane="best" departSpeed="max" from="331292452" id="rs_c001_i000_618" to="35062429#0"/>
 <trip depart="331.57" departLane="best" departSpeed="max" from="133113957#0" id="rs_c000_i000_558" to="102332987#0"/>
 <trip depart="332.62" departLane="best" departSpeed="max" from="133113957#0" id="rs_c000_i000_293" to="102332987#0"/>
 <trip depart="335.0" departLane="best" departSpeed="max" from="-212694593#2" id="rs_c000_i000_3672" to="26187755#0"/>
 <trip depart="338.0" departLane="best" departSpeed="max" from="-15242128#0" id="rs_c000_i000_3720" to="38455846"/>
 <trip depart="341.04" departLane="best" departSpeed="max" from="6929234#1" id="rs_c001_i000_559" to="102332987#0"/>
 <trip depart="342.07" departLane="best" departSpeed="max" from="96718348#0" id="rs_c000_i000_1589_part1" to="102332987#0"/>
 <trip depart="346.0" departLane="best" departSpeed="max" from="-122529110" id="rs_c000_i000_3802" to="144246396#1"/>
 <trip depart="347.0" departLane="best" departSpeed="max" from="-95937723" id="rs_c001_i000_529" to="26187755#0"/>
 <trip depart="347.76" departLane="best" departSpeed="max" from="286138967" id="rs_c000_i000_1272" to="29508371#0"/>
 <trip depart="350.0" departLane="best" departSpeed="max" from="-32461045#3" id="rs_c000_i002_76" to="41882139"/>
 <trip depart="352.0" departLane="best" departSpeed="max" from="-75654891" id="rs_c001_i000_675" to="41882139"/>
 <trip depart="352.41" departLane="best" departSpeed="max" from="30714753#0" id="rs_c000_i000_965" to="210192500"/>
 <trip depart="353.0" departLane="best" departSpeed="max" from="4246322#0" id="rs_c001_i000_676" to="102332987#0"/>
 <trip depart="353.48" departLane="best" departSpeed="max" from="26349689" id="rs_c000_i001_51" to="115921720"/>
 <trip depart="356.0" departLane="best" departSpeed="max" from="10516236" id="rs_c000_i001_545" to="60752388"/>
 <trip depart="356.0" departLane="best" departSpeed="max" from="-116610243" id="rs_c000_i000_3918" to="17244796"/>
 <trip depart="360.0" departLane="best" departSpeed="max" from="32461045#0" id="rs_c001_i000_681" to="703967788#1"/>
 <trip depart="361.0" departLane="best" departSpeed="max" from="331558619#0" id="rs_c000_i000_3970" to="102332987#0"/>
 <trip depart="366.0" departLane="best" departSpeed="max" from="-349902607#0" id="rs_c001_i000_693" to="-94124135"/>
 <trip depart="366.0" departLane="best" departSpeed="max" from="-38281640#1" id="rs_c000_i000_4015" to="34760663"/>
 <trip depart="366.8" departLane="best" departSpeed="max" from="96718348#0" id="rs_c001_i000_169" to="102332987#0"/>
 <trip depart="367.0" departLane="best" departSpeed="max" from="94107492" id="rs_c001_i000_696" to="72728806"/>
 <trip depart="367.35" departLane="best" departSpeed="max" from="286138967" id="rs_c000_i000_1390" to="29508371#0"/>
 <trip depart="369.0" departLane="best" departSpeed="max" from="-24423403#8" id="rs_c000_i000_4052" to="144246396#1"/>
 <trip depart="370.0" departLane="best" departSpeed="max" from="-10426219" id="rs_c000_i001_570" to="35062429#0"/>
 <trip depart="371.86" departLane="best" departSpeed="max" from="286138967" id="rs_c000_i000_1470" to="29508371#0"/>
 <trip depart="382.0" departLane="best" departSpeed="max" from="-29688693" id="rs_c000_i000_4219" to="582286859#0"/>
 <trip depart="383.0" departLane="best" departSpeed="max" from="-100018567" id="rs_c000_i000_4238" to="34776006"/>
 <trip depart="383.0" departLane="best" departSpeed="max" from="-14571550#0" id="rs_c000_i001_587" to="35062429#0"/>
 <trip depart="384.0" departLane="best" departSpeed="max" from="404496510#0" id="rs_c000_i000_3495" to="35061798"/>
 <trip depart="384.0" departLane="best" departSpeed="max" from="122529102#2" id="rs_c000_i000_4246" to="26187755#0"/>
 <trip depart="384.0" departLane="best" departSpeed="max" from="-58603104" id="rs_c000_i000_4247" to="117654824#0"/>
 <trip depart="385.0" departLane="best" departSpeed="max" from="-6927021" id="rs_c000_i000_4253" to="102332987#0"/>
 <trip depart="387.0" departLane="best" departSpeed="max" from="-4244655" id="rs_c001_i000_735" to="72728808"/>
 <trip depart="389.0" departLane="best" departSpeed="max" from="-5234378" id="rs_c001_i000_740" to="72728808"/>
 <trip depart="392.0" departLane="best" departSpeed="max" from="-28918381#0" id="rs_c000_i000_4344" to="24429380-AddedOffRampEdge"/>
 <trip depart="393.42" departLane="best" departSpeed="max" from="133113957#0" id="rs_c001_i000_295" to="102332987#0"/>
 <trip depart="397.25" departLane="best" departSpeed="max" from="133113957#0" id="rs_c000_i000_2114" to="102332987#0"/>
 <trip depart="398.0" departLane="best" departSpeed="max" from="-6926949#1" id="rs_c000_i000_4401" to="28738381#0"/>
 <trip depart="400.0" departLane="best" departSpeed="max" from="-121411748#1" id="rs_c000_i000_4388" to="117654824#0"/>
 <trip depart="400.0" departLane="best" departSpeed="max" from="-208585109#0" id="rs_c000_i000_4416" to="16820737#0"/>
 <trip depart="400.0" departLane="best" departSpeed="max" from="-32870033" id="rs_c000_i000_4423" to="34760663"/>
 <trip depart="400.0" departLane="best" departSpeed="max" from="-95799435" id="rs_c000_i001_619" to="17244796"/>
 <trip depart="402.0" departLane="best" departSpeed="max" from="10516368" id="rs_c000_i001_620" to="-124537762"/>
 <trip depart="404.0" departLane="best" departSpeed="max" from="-117654819#0" id="rs_c000_i000_4489" to="25980639"/>
 <trip depart="405.0" departLane="best" departSpeed="max" from="-25587247" id="rs_c001_i000_773" to="-94124135"/>
 <trip depart="407.0" departLane="best" departSpeed="max" from="-32461045#4" id="rs_c000_i000_4512" to="16820737#0"/>
 <trip depart="407.0" departLane="best" departSpeed="max" from="-235031517" id="rs_c000_i000_4518" to="102332991"/>
 <trip depart="408.0" departLane="best" departSpeed="max" from="190721768#1" id="rs_c001_i001_97_part0" to="34587265#0"/>
 <trip depart="409.03" departLane="best" departSpeed="max" from="26349689" id="rs_c000_i000_112" to="-61565232#0"/>
 <trip depart="410.0" departLane="best" departSpeed="max" from="57722544" id="rs_c001_i000_780" to="41882139"/>
 <trip depart="410.0" departLane="best" departSpeed="max" from="-74011129#0" id="rs_c000_i000_4548" to="117654824#0"/>
 <trip depart="414.1" departLane="best" departSpeed="max" from="133113957#0" id="rs_c000_i000_1332" to="102332987#0"/>
 <trip depart="414.69" departLane="best" departSpeed="max" from="582286858#1" id="rs_c000_i000_552" to="117654824#0"/>
 <trip depart="416.0" departLane="best" departSpeed="max" from="-95212556" id="rs_c000_i000_4637" to="26187757#1"/>
 <trip depart="417.33" departLane="best" departSpeed="max" from="30714753#0" id="rs_c000_i000_2404" to="210192500"/>
 <trip depart="419.0" departLane="best" departSpeed="max" from="-62057537" id="rs_c001_i001_101" to="61720106"/>
 <trip depart="421.21" departLane="best" departSpeed="max" from="133113957#0" id="rs_c000_i000_1093" to="102332987#0"/>
 <trip depart="423.0" departLane="best" departSpeed="max" from="-337470015#2" id="rs_c000_i000_4714" to="133114633"/>
 <trip depart="430.0" departLane="best" departSpeed="max" from="-83510232#0" id="rs_c001_i001_103" to="72728808"/>
 <trip depart="430.0" departLane="best" departSpeed="max" from="212690609#1" id="rs_c000_i000_4781" to="-124537762"/>
 <trip depart="430.0" departLane="best" departSpeed="max" from="-26165754#2" id="rs_c000_i000_4783" to="24428921"/>
 <trip depart="430.0" departLane="best" departSpeed="max" from="-10508541" id="rs_c000_i000_4790" to="60752388"/>
 <trip depart="432.0" departLane="best" departSpeed="max" from="4238006#0" id="rs_c000_i000_4815" to="237496662"/>
 <trip depart="432.0" departLane="best" departSpeed="max" from="-210993752#0" id="rs_c000_i001_669" to="530282943"/>
 <trip depart="435.0" departLane="best" departSpeed="max" from="5094244" id="rs_c000_i000_4849" to="10621055"/>
 <trip depart="435.76" departLane="best" departSpeed="max" from="286138967" id="rs_c000_i000_884" to="29508371#0"/>
 <trip depart="437.0" departLane="best" departSpeed="max" from="118869284#0" id="rs_c001_i000_848" to="26187755#0"/>
 <trip depart="437.0" departLane="best" departSpeed="max" from="14566949" id="rs_c000_i000_4863" to="38455846"/>
 <trip depart="438.27" departLane="best" departSpeed="max" from="582286858#1" id="rs_c001_i000_237" to="51667067#0"/>
 <trip depart="440.0" departLane="best" departSpeed="max" from="45873419#1" id="rs_c001_i000_844" to="30707088#0"/>
 <trip depart="440.0" departLane="best" departSpeed="max" from="-26378768" id="rs_c000_i000_4908" to="34776006"/>
 <trip depart="440.1" departLane="best" departSpeed="max" from="26349689" id="rs_c000_i000_447" to="-52098527#0"/>
 <trip depart="441.0" departLane="best" departSpeed="max" from="-95937723" id="rs_c000_i000_4133" to="144246396#1"/>
 <trip depart="441.0" departLane="best" departSpeed="max" from="28918381#2" id="rs_c000_i000_4915" to="24429380-AddedOffRampEdge"/>
 <trip depart="441.46" departLane="best" departSpeed="max" from="30714753#0" id="rs_c000_i000_1863" to="58422788#0-AddedOffRampEdge"/>
 <trip depart="441.78" departLane="best" departSpeed="max" from="-370016264#0" id="rs_c001_i000_706" to="35062429#0"/>
 <trip depart="442.0" departLane="best" departSpeed="max" from="-42792917#2" id="rs_c000_i001_688" to="25980639"/>
 <trip depart="443.62" departLane="best" departSpeed="max" from="133113957#0" id="rs_c000_i002_5" to="102332987#0"/>
 <trip depart="450.0" departLane="best" departSpeed="max" from="-95937723" id="rs_c000_i000_4673" to="26187755#0"/>
 <trip depart="450.0" departLane="best" departSpeed="max" from="-14573382#0" id="rs_c000_i000_5011" to="35062429#0"/>
 <trip depart="450.0" departLane="best" departSpeed="max" from="-10357406#1" id="rs_c000_i000_5015" to="58422788#0-AddedOffRampEdge"/>
 <trip depart="450.91" departLane="best" departSpeed="max" from="-445997357#0" id="rs_c000_i000_1719" to="10621055"/>
 <trip depart="451.0" departLane="best" departSpeed="max" from="-24031434#0" id="rs_c000_i001_659" to="60752388"/>
 <trip depart="451.0" departLane="best" departSpeed="max" from="-372445340#0" id="rs_c000_i000_5033" to="25980639"/>
 <trip depart="454.0" departLane="best" departSpeed="max" from="76074269" id="rs_c001_i000_885" to="34760663"/>
 <trip depart="454.0" departLane="best" departSpeed="max" from="-122529103" id="rs_c000_i000_5054" to="144246396#1"/>
 <trip depart="456.0" departLane="best" departSpeed="max" from="210994589" id="rs_c001_i000_889" to="530282943"/>
 <trip depart="456.75" departLane="best" departSpeed="max" from="26349689" id="rs_c000_i000_178" to="-5095213"/>
 <trip depart="458.0" departLane="best" departSpeed="max" from="707213263#0" id="rs_c000_i000_5115" to="102332991"/>
 <trip depart="458.53" departLane="best" departSpeed="max" from="30714753#0" id="rs_c000_i000_1541" to="607800580"/>
 <trip depart="461.0" departLane="best" departSpeed="max" from="52098527#0" id="rs_c000_i000_5167" to="210192500"/>
 <trip depart="463.08" departLane="best" departSpeed="max" from="286138967" id="rs_c000_i000_1266" to="29508371#0"/>
 <trip depart="464.0" departLane="best" departSpeed="max" from="-23197959" id="rs_c000_i001_713" to="58422330"/>
 <trip depart="464.3" departLane="best" departSpeed="max" from="133113957#0" id="rs_c000_i000_1740" to="72728808"/>
 <trip depart="467.0" departLane="best" departSpeed="max" from="-4233644#1" id="rs_c000_i001_717" to="530282943"/>
 <trip depart="469.0" departLane="best" departSpeed="max" from="126449221#0" id="rs_c000_i001_720" to="582286859#0"/>
 <trip depart="475.0" departLane="best" departSpeed="max" from="8141209" id="rs_c000_i000_5313" to="29970080#0"/>
 <trip depart="482.0" departLane="best" departSpeed="max" from="-358697050" id="rs_c001_i000_931" to="133114633"/>
 <trip depart="482.21" departLane="best" departSpeed="max" from="29689100#0" id="rs_c001_i000_401" to="24429380-AddedOffRampEdge"/>
 <trip depart="484.0" departLane="best" departSpeed="max" from="-211129670#0" id="rs_c001_i000_937" to="530282943"/>
 <trip depart="486.0" departLane="best" departSpeed="max" from="133114634" id="rs_c000_i000_5423" to="102332987#0"/>
 <trip depart="489.0" departLane="best" departSpeed="max" from="-316340789" id="rs_c000_i000_5452" to="206350041"/>
 <trip depart="490.0" departLane="best" departSpeed="max" from="125689487#2" id="rs_c000_i000_5468" to="530282943"/>
 <trip depart="493.93" departLane="best" departSpeed="max" from="26349689" id="rs_c000_i000_1890" to="62116506#1"/>
 <trip depart="494.0" departLane="best" departSpeed="max" from="24405148" id="rs_c001_i000_952" to="34760663"/>
 <trip depart="500.0" departLane="best" departSpeed="max" from="6927279" id="rs_c000_i000_5575" to="133114633"/>
 <trip depart="501.0" departLane="best" departSpeed="max" from="-136864084#1" id="rs_c000_i000_5581" to="24428921"/>
 <trip depart="502.0" departLane="best" departSpeed="max" from="4226192#2" id="rs_c001_i000_968" to="72728808"/>
 <trip depart="502.0" departLane="best" departSpeed="max" from="61367419#3" id="rs_c001_i000_970" to="582286859#0"/>
 <trip depart="502.02" departLane="best" departSpeed="max" from="133113957#0" id="rs_c001_i000_298" to="72728808"/>
 <trip depart="503.38" departLane="best" departSpeed="max" from="30692829" id="rs_c000_i000_1679" to="607800580"/>
 <trip depart="505.0" departLane="best" departSpeed="max" from="-8135855" id="rs_c000_i000_5634" to="17244796"/>
 <trip depart="509.0" departLane="best" departSpeed="max" from="-137996243" id="rs_c000_i001_782" to="26187757#1"/>