<?xml version="1.0" encoding="utf-8"?>
<routes>
 <vType color="green" id="taxi" personCapacity="2" vClass="taxi">
  <param key="has.taxi.device" value="true"/>
  <param key="device.taxi.pickUpDuration" value="0"/>
  <param key="device.taxi.dropOffDuration" value="10"/>
  <param key="device.taxi.parking" value="true"/>
 </vType>
 <trip depart="0" from="61497943#1" id="t0" to="-235047961" type="taxi"/>
 <trip depart="0" from="222307221#0" id="t1" to="10559035" type="taxi"/>
 <trip depart="0" from="118869284#1" id="t2" to="232177529#0" type="taxi"/>
 <trip depart="0" from="-57726375#3" id="t3" to="28717817" type="taxi"/>
 <trip depart="0" from="23739393" id="t4" to="26349563#0" type="taxi"/>
 <trip depart="0" from="-159761036#1" id="t5" to="10559201" type="taxi"/>
 <trip depart="0" from="83488871" id="t6" to="-136864084#0" type="taxi"/>
 <trip depart="0" from="-84018033" id="t7" to="-10374052" type="taxi"/>
 <trip depart="0" from="-61543316#1" id="t8" to="38325502#0" type="taxi"/>
 <trip depart="0" from="5234741" id="t9" to="126449238" type="taxi"/>
 <trip depart="0" from="-1080290022" id="t10" to="-22914198" type="taxi"/>
 <trip depart="0" from="-116049442" id="t11" to="890973612" type="taxi"/>
 <trip depart="0" from="5095197#1" id="t12" to="191374712#1" type="taxi"/>
 <trip depart="0" from="26368316" id="t13" to="-63322106#0" type="taxi"/>
 <trip depart="0" from="-17265677" id="t14" to="-38281520#1" type="taxi"/>
 <trip depart="0" from="-314405014" id="t15" to="-24399330#1" type="taxi"/>
 <trip depart="0" from="15242128#1" id="t16" to="126449231#0" type="taxi"/>
 <trip depart="0" from="62057884#1" id="t17" to="-345608032#0" type="taxi"/>
 <trip depart="0" from="-117099159#5" id="t18" to="-26165752#1" type="taxi"/>
 <trip depart="0" from="-26165754#1" id="t19" to="116049444#0" type="taxi"/>
 <trip depart="0" from="-118869287" id="t20" to="10557712" type="taxi"/>
 <trip depart="0" from="-35772871" id="t21" to="5231370" type="taxi"/>
 <trip depart="0" from="17221484" id="t22" to="35062429#3" type="taxi"/>
 <trip depart="0" from="-30326685#1" id="t23" to="126709272#2" type="taxi"/>
 <trip depart="0" from="126449231#0" id="t24" to="-8141209" type="taxi"/>
 <trip depart="0" from="-137388192#0" id="t25" to="213132380" type="taxi"/>
 <trip depart="0" from="-20179292#1" id="t26" to="-8394848" type="taxi"/>
 <trip depart="0" from="95916459" id="t27" to="-8141209" type="taxi"/>
 <trip depart="0" from="-23960853#0" id="t28" to="159761034" type="taxi"/>
 <trip depart="0" from="-136721664" id="t29" to="95799445" type="taxi"/>
 <trip depart="0" from="35772871" id="t30" to="-24031456#3" type="taxi"/>
 <trip depart="0" from="-26165752#0" id="t31" to="117654815#0" type="taxi"/>
 <trip depart="0" from="-27404368#1" id="t32" to="-122529096#3" type="taxi"/>
 <trip depart="0" from="-300060711" id="t33" to="5234573#0" type="taxi"/>
 <trip depart="0" from="24477199" id="t34" to="349902606#0" type="taxi"/>
 <trip depart="0" from="35062276" id="t35" to="126449231#0" type="taxi"/>
 <trip depart="0" from="35772871" id="t36" to="1080293510" type="taxi"/>
 <trip depart="0" from="-122529098#1" id="t37" to="61497943#1" type="taxi"/>
 <trip depart="0" from="234088653#1" id="t38" to="15242128#1" type="taxi"/>
 <trip depart="0" from="4244655" id="t39" to="29712334#0" type="taxi"/>
 <trip depart="0" from="-117649887" id="t40" to="8102545" type="taxi"/>
 <trip depart="0" from="-10426173" id="t41" to="-349902607#0" type="taxi"/>
 <trip depart="0" from="234540367" id="t42" to="29498972#0" type="taxi"/>
 <trip depart="0" from="-96809683#0" id="t43" to="118864079#2" type="taxi"/>
 <trip depart="0" from="-20179292#1" id="t44" to="-10426171#0" type="taxi"/>
 <trip depart="0" from="211199291" id="t45" to="-61543316#1" type="taxi"/>
 <trip depart="0" from="14571550#1" id="t46" to="4238014" type="taxi"/>
 <trip depart="0" from="-4680624#0" id="t47" to="-210457775#1" type="taxi"/>
 <trip depart="0" from="4238014" id="t48" to="136721683" type="taxi"/>
 <trip depart="0" from="4226192#2" id="t49" to="5234573#0" type="taxi"/>
 <trip depart="0" from="117654815#0" id="t50" to="283762344" type="taxi"/>
 <trip depart="0" from="56253838" id="t51" to="122529102#0" type="taxi"/>
 <trip depart="0" from="-30326685#1" id="t52" to="-128504972" type="taxi"/>
 <trip depart="0" from="-61367412" id="t53" to="-118864085" type="taxi"/>
 <trip depart="0" from="118864084" id="t54" to="-125351110" type="taxi"/>
 <trip depart="0" from="-34776024" id="t55" to="-8136286#3" type="taxi"/>
 <trip depart="0" from="-62789947#0" id="t56" to="-118155460" type="taxi"/>
 <trip depart="0" from="-28912204" id="t57" to="61367434" type="taxi"/>
 <trip depart="0" from="-136721677#1" id="t58" to="314252689" type="taxi"/>
 <trip depart="0" from="122529099" id="t59" to="-306713165" type="taxi"/>
 <trip depart="0" from="-224710093#0" id="t60" to="-127207622" type="taxi"/>
 <trip depart="0" from="25767798#1" id="t61" to="-211120148" type="taxi"/>
 <trip depart="0" from="83163133" id="t62" to="-62789947#1" type="taxi"/>
 <trip depart="0" from="-301145897" id="t63" to="58423646" type="taxi"/>
 <trip depart="0" from="-61997814#0" id="t64" to="300981184#1" type="taxi"/>
 <trip depart="0" from="62057884#2" id="t65" to="-96809683#1" type="taxi"/>
 <trip depart="0" from="86527638#1" id="t66" to="-116049788#0" type="taxi"/>
 <trip depart="0" from="892250218" id="t67" to="-57726375#2" type="taxi"/>
 <trip depart="0" from="24031456#3" id="t68" to="-31465531#1" type="taxi"/>
 <trip depart="0" from="62057884#2" id="t69" to="-53357944" type="taxi"/>
 <trip depart="0" from="-10372376" id="t70" to="26187880#0" type="taxi"/>
 <trip depart="0" from="34149613" id="t71" to="-83510232#0" type="taxi"/>
 <trip depart="0" from="-58097862#0" id="t72" to="-10426021#1" type="taxi"/>
 <trip depart="0" from="-61566226" id="t73" to="24821927#1" type="taxi"/>
 <trip depart="0" from="-42792917#1" id="t74" to="-5234464" type="taxi"/>
 <trip depart="0" from="25767797#0" id="t75" to="-101521565" type="taxi"/>
 <trip depart="0" from="-5067354#1" id="t76" to="24398203#1" type="taxi"/>
 <trip depart="0" from="-116049439#1" id="t77" to="286342117" type="taxi"/>
 <trip depart="0" from="122529094#3" id="t78" to="-59683580#0" type="taxi"/>
 <trip depart="0" from="5095178#1" id="t79" to="-61371685#0" type="taxi"/>
 <trip depart="0" from="159761034" id="t80" to="-328266345" type="taxi"/>
 <trip depart="0" from="-5234573#0" id="t81" to="-136721677#1" type="taxi"/>
 <trip depart="0" from="-10425858" id="t82" to="15242125" type="taxi"/>
 <trip depart="0" from="-86527656" id="t83" to="-116049442" type="taxi"/>
 <trip depart="0" from="-95212556" id="t84" to="-117656063#0" type="taxi"/>
 <trip depart="0" from="-10372376" id="t85" to="-42792917#2" type="taxi"/>
 <trip depart="0" from="38325502#1" id="t86" to="-84018033" type="taxi"/>
 <trip depart="0" from="290255301" id="t87" to="-59683236#1" type="taxi"/>
 <trip depart="0" from="-147136167" id="t88" to="122529094#1" type="taxi"/>
 <trip depart="0" from="-84656708" id="t89" to="-85562446#0" type="taxi"/>
 <trip depart="0" from="97097111#1" id="t90" to="-147136167" type="taxi"/>
 <trip depart="0" from="-35605874#1" id="t91" to="-128504972" type="taxi"/>
 <trip depart="0" from="26369585" id="t92" to="-57726373#0" type="taxi"/>
 <trip depart="0" from="-328253310#1" id="t93" to="-59683580#1" type="taxi"/>
 <trip depart="0" from="-15242129#0" id="t94" to="83163133" type="taxi"/>
 <trip depart="0" from="-117643614#0" id="t95" to="-5234573#0" type="taxi"/>
 <trip depart="0" from="-14433921#1" id="t96" to="-96945485" type="taxi"/>
 <trip depart="0" from="35062429#2" id="t97" to="24407716" type="taxi"/>
 <trip depart="0" from="321098632#1" id="t98" to="122529094#3" type="taxi"/>
 <trip depart="0" from="4273624" id="t99" to="14571549" type="taxi"/>
 <trip depart="0" from="-137388192#1" id="t100" to="4244655" type="taxi"/>
 <trip depart="0" from="73225130#1" id="t101" to="-4353778#2" type="taxi"/>
 <trip depart="0" from="137996244#1" id="t102" to="53682403#0" type="taxi"/>
 <trip depart="0" from="-95100609" id="t103" to="314252679" type="taxi"/>
 <trip depart="0" from="-26127182#1" id="t104" to="132047189" type="taxi"/>
 <trip depart="0" from="-127207622" id="t105" to="-10426171#0" type="taxi"/>
 <trip depart="0" from="83488871" id="t106" to="169313833#0" type="taxi"/>
 <trip depart="0" from="121411753#0" id="t107" to="-138037521" type="taxi"/>
 <trip depart="0" from="219528063" id="t108" to="28717817" type="taxi"/>
 <trip depart="0" from="29509219#0" id="t109" to="4244655" type="taxi"/>
 <trip depart="0" from="-118869284#1" id="t110" to="-169313833#2" type="taxi"/>
 <trip depart="0" from="-75565714" id="t111" to="98158885#2" type="taxi"/>
 <trip depart="0" from="-42792917#2" id="t112" to="-14994763" type="taxi"/>
 <trip depart="0" from="-4361947" id="t113" to="-132047178" type="taxi"/>
 <trip depart="0" from="122529114#0" id="t114" to="122529096#8" type="taxi"/>
 <trip depart="0" from="83163119" id="t115" to="24031456#5" type="taxi"/>
 <trip depart="0" from="-211129670#0" id="t116" to="-30098515" type="taxi"/>
 <trip depart="0" from="-24031456#3" id="t117" to="-5095213" type="taxi"/>
 <trip depart="0" from="24821927#1" id="t118" to="-117643622" type="taxi"/>
 <trip depart="0" from="-30471451" id="t119" to="-30471451" type="taxi"/>
 <trip depart="0" from="117656065#0" id="t120" to="-117656063#0" type="taxi"/>
 <trip depart="0" from="4244653" id="t121" to="-4353778#2" type="taxi"/>
 <trip depart="0" from="-84018033" id="t122" to="-116049788#0" type="taxi"/>
 <trip depart="0" from="-208585109#0" id="t123" to="4250372" type="taxi"/>
 <trip depart="0" from="35772871" id="t124" to="71360393" type="taxi"/>
 <trip depart="0" from="631862806" id="t125" to="26959968#3" type="taxi"/>
 <trip depart="0" from="-125351110" id="t126" to="-63322106#0" type="taxi"/>
 <trip depart="0" from="-25673108#1" id="t127" to="4226192#2" type="taxi"/>
 <trip depart="0" from="-24031456#1" id="t128" to="121411753#0" type="taxi"/>
 <trip depart="0" from="24405231#2" id="t129" to="-84656435#0" type="taxi"/>
 <trip depart="0" from="68415604" id="t130" to="-208548182" type="taxi"/>
 <trip depart="0" from="83633194" id="t131" to="58097863" type="taxi"/>
 <trip depart="0" from="-136864084#1" id="t132" to="-75567703#0" type="taxi"/>
 <trip depart="0" from="30257059#1" id="t133" to="-122529096#3" type="taxi"/>
 <trip depart="0" from="-61565232#0" id="t134" to="-118864084" type="taxi"/>
 <trip depart="0" from="-62106186#0" id="t135" to="83488871" type="taxi"/>
 <trip depart="0" from="-217763498#0" id="t136" to="-20179292#1" type="taxi"/>
 <trip depart="0" from="38336405#1" id="t137" to="-95937728#1" type="taxi"/>
 <trip depart="0" from="-4680624#0" id="t138" to="-24399330#1" type="taxi"/>
 <trip depart="0" from="-35772871" id="t139" to="5095190#0" type="taxi"/>
 <trip depart="0" from="-27404368#1" id="t140" to="-335084841#1" type="taxi"/>
 <trip depart="0" from="-301145897" id="t141" to="51856551#0" type="taxi"/>
 <trip depart="0" from="-30471451" id="t142" to="-74693877" type="taxi"/>
 <trip depart="0" from="213132380" id="t143" to="-62789947#0" type="taxi"/>
 <trip depart="0" from="-84639207" id="t144" to="-61543316#1" type="taxi"/>
 <trip depart="0" from="-125351110" id="t145" to="117654826" type="taxi"/>
 <trip depart="0" from="-24399330#0" id="t146" to="-611245993" type="taxi"/>
 <trip depart="0" from="-84656708" id="t147" to="-62789947#0" type="taxi"/>
 <trip depart="0" from="-611245993" id="t148" to="301503276" type="taxi"/>
 <trip depart="0" from="-118155460" id="t149" to="96050735" type="taxi"/>
 <trip depart="0" from="95916459" id="t150" to="14571549" type="taxi"/>
 <trip depart="0" from="-116049439#1" id="t151" to="26187879" type="taxi"/>
 <trip depart="0" from="-31465531#1" id="t152" to="132817971" type="taxi"/>
 <trip depart="0" from="-35772871" id="t153" to="-210457775#0" type="taxi"/>
 <trip depart="0" from="86527638#1" id="t154" to="331361889" type="taxi"/>
 <trip depart="0" from="-10425858" id="t155" to="1080293510" type="taxi"/>
 <trip depart="0" from="1006265805#3" id="t156" to="61367434" type="taxi"/>
 <trip depart="0" from="-84656707#0" id="t157" to="83488871" type="taxi"/>
 <trip depart="0" from="222307221#0" id="t158" to="37972616" type="taxi"/>
 <trip depart="0" from="-58097862#0" id="t159" to="-57726375#3" type="taxi"/>
 <trip depart="0" from="-313656937" id="t160" to="-137388192#1" type="taxi"/>
 <trip depart="0" from="4361529#1" id="t161" to="-14573382#1" type="taxi"/>
 <trip depart="0" from="43263108" id="t162" to="-10426173" type="taxi"/>
 <trip depart="0" from="-297159795#0" id="t163" to="-35772871" type="taxi"/>
 <trip depart="0" from="144246396#1" id="t164" to="84656435#1" type="taxi"/>
 <trip depart="0" from="-330415869" id="t165" to="24031456#5" type="taxi"/>
 <trip depart="0" from="26368316" id="t166" to="314250821" type="taxi"/>
 <trip depart="0" from="369150317#1" id="t167" to="132817973#0" type="taxi"/>
 <trip depart="0" from="4250372" id="t168" to="-117654815#3" type="taxi"/>
 <trip depart="0" from="-95937728#0" id="t169" to="-210457775#0" type="taxi"/>
 <trip depart="0" from="-20179292#1" id="t170" to="-26085515#0" type="taxi"/>
 <trip depart="0" from="39297416" id="t171" to="-38807023" type="taxi"/>
 <trip depart="0" from="10558007#0" id="t172" to="10557655" type="taxi"/>
 <trip depart="0" from="4728026" id="t173" to="-5234573#0" type="taxi"/>
 <trip depart="0" from="-313656937" id="t174" to="-26165752#1" type="taxi"/>
 <trip depart="0" from="53682403#0" id="t175" to="607800583" type="taxi"/>
 <trip depart="0" from="63322102#1" id="t176" to="38674840" type="taxi"/>
 <trip depart="0" from="219528063" id="t177" to="30257059#1" type="taxi"/>
 <trip depart="0" from="10557712" id="t178" to="98236882#1" type="taxi"/>
 <trip depart="0" from="-118155450" id="t179" to="30140137#0" type="taxi"/>
 <trip depart="0" from="62059875#2" id="t180" to="126449315#0" type="taxi"/>
 <trip depart="0" from="4237991" id="t181" to="-24031456#1" type="taxi"/>
 <trip depart="0" from="314414021" id="t182" to="24821927#1" type="taxi"/>
 <trip depart="0" from="122529094#4" id="t183" to="-78049392" type="taxi"/>
 <trip depart="0" from="-101520672" id="t184" to="-53357944" type="taxi"/>
 <trip depart="0" from="-84639207" id="t185" to="122529102#0" type="taxi"/>
 <trip depart="0" from="188956290" id="t186" to="-30471451" type="taxi"/>
 <trip depart="0" from="-5234278#1" id="t187" to="-217763498#1" type="taxi"/>
 <trip depart="0" from="166533651" id="t188" to="-23960853#0" type="taxi"/>
 <trip depart="0" from="906802009" id="t189" to="-132047178" type="taxi"/>
 <trip depart="0" from="1052613455" id="t190" to="-8141209" type="taxi"/>
 <trip depart="0" from="38336405#1" id="t191" to="-335084841#0" type="taxi"/>
 <trip depart="0" from="631862806" id="t192" to="-14573382#1" type="taxi"/>
 <trip depart="0" from="5095190#0" id="t193" to="-362993459" type="taxi"/>
 <trip depart="0" from="56253839" id="t194" to="15242125" type="taxi"/>
 <trip depart="0" from="-1080290022" id="t195" to="-22982190" type="taxi"/>
 <trip depart="0" from="117654815#0" id="t196" to="314252679" type="taxi"/>
 <trip depart="0" from="-136721677#1" id="t197" to="1080293510" type="taxi"/>
 <trip depart="0" from="-32461045#3" id="t198" to="-101521565" type="taxi"/>
 <trip depart="0" from="14571549" id="t199" to="95916459" type="taxi"/>
 <trip depart="0" from="-8394848" id="t200" to="136721679#2" type="taxi"/>
 <trip depart="0" from="83163097#1" id="t201" to="-51722317" type="taxi"/>
 <trip depart="0" from="-233220919" id="t202" to="-96945485" type="taxi"/>
 <trip depart="0" from="-208585109#0" id="t203" to="-15242129#0" type="taxi"/>
 <trip depart="0" from="-123037083" id="t204" to="122529094#2" type="taxi"/>
 <trip depart="0" from="61367449#1" id="t205" to="220802775" type="taxi"/>
 <trip depart="0" from="126140573#0" id="t206" to="286243200" type="taxi"/>
 <trip depart="0" from="-211120148" id="t207" to="-611245993" type="taxi"/>
 <trip depart="0" from="118155456#0" id="t208" to="668611390#0" type="taxi"/>
 <trip depart="0" from="-117623505" id="t209" to="-10426173" type="taxi"/>
 <trip depart="0" from="-24031456#1" id="t210" to="-4227191" type="taxi"/>
 <trip depart="0" from="331540404#1" id="t211" to="-10372364#0" type="taxi"/>
 <trip depart="0" from="35062429#2" id="t212" to="28912317#3" type="taxi"/>
 <trip depart="0" from="-24399330#0" id="t213" to="126449238" type="taxi"/>
 <trip depart="0" from="94107470" id="t214" to="257423660#1" type="taxi"/>
 <trip depart="0" from="-44503434#0" id="t215" to="-35606385#0" type="taxi"/>
 <trip depart="0" from="-117623505" id="t216" to="-84017999#0" type="taxi"/>
 <trip depart="0" from="-77606148#0" id="t217" to="-84656707#0" type="taxi"/>
 <trip depart="0" from="84744384#1" id="t218" to="83163133" type="taxi"/>
 <trip depart="0" from="-306713165" id="t219" to="83163132" type="taxi"/>
 <trip depart="0" from="-84639207" id="t220" to="-328253310#1" type="taxi"/>
 <trip depart="0" from="631862806" id="t221" to="-301127378" type="taxi"/>
 <trip depart="0" from="122529114#0" id="t222" to="126449231#0" type="taxi"/>
 <trip depart="0" from="-75567703#1" id="t223" to="232177529#1" type="taxi"/>
 <trip depart="0" from="62057884#2" id="t224" to="30605198" type="taxi"/>
 <trip depart="0" from="62057884#1" id="t225" to="-122529096#4" type="taxi"/>
 <trip depart="0" from="892250218" id="t226" to="28912317#3" type="taxi"/>
 <trip depart="0" from="98236882#1" id="t227" to="78343352#1" type="taxi"/>
 <trip depart="0" from="-14994763" id="t228" to="234540367" type="taxi"/>
 <trip depart="0" from="5086872" id="t229" to="-101521569#0" type="taxi"/>
 <trip depart="0" from="331540404#1" id="t230" to="-4341507#0" type="taxi"/>
 <trip depart="0" from="-63116648#0" id="t231" to="-237386917#1" type="taxi"/>
 <trip depart="0" from="-125589533" id="t232" to="24821927#1" type="taxi"/>
 <trip depart="0" from="-45180352" id="t233" to="5095178#1" type="taxi"/>
 <trip depart="0" from="217696286#1" id="t234" to="-10425852" type="taxi"/>
 <trip depart="0" from="61497943#1" id="t235" to="-116049443#3" type="taxi"/>
 <trip depart="0" from="5234573#0" id="t236" to="-35606385#0" type="taxi"/>
 <trip depart="0" from="290255300" id="t237" to="118155456#0" type="taxi"/>
 <trip depart="0" from="15242125" id="t238" to="-75567703#1" type="taxi"/>
 <trip depart="0" from="-83488850" id="t239" to="30001659" type="taxi"/>
 <trip depart="0" from="26349563#0" id="t240" to="25600863" type="taxi"/>
 <trip depart="0" from="117654815#0" id="t241" to="62057884#2" type="taxi"/>
 <trip depart="0" from="-45578880" id="t242" to="137996244#0" type="taxi"/>
 <trip depart="0" from="-61565968" id="t243" to="-118869287" type="taxi"/>
 <trip depart="0" from="-116049788#0" id="t244" to="-38281640#0" type="taxi"/>
 <trip depart="0" from="-290255303#2" id="t245" to="-95937728#1" type="taxi"/>
 <trip depart="0" from="24031456#4" id="t246" to="24821927#1" type="taxi"/>
 <trip depart="0" from="30140141" id="t247" to="4226192#2" type="taxi"/>
 <trip depart="0" from="-10426204#0" id="t248" to="668611390#0" type="taxi"/>
 <trip depart="0" from="-117099159#5" id="t249" to="-128504972" type="taxi"/>
 <trip depart="0" from="-84639229#0" id="t250" to="-26165752#0" type="taxi"/>
 <trip depart="0" from="-16345612#0" id="t251" to="-626942404#0" type="taxi"/>
 <trip depart="0" from="1080293510" id="t252" to="83179014" type="taxi"/>
 <trip depart="0" from="122529094#3" id="t253" to="283762346" type="taxi"/>
 <trip depart="0" from="26348749" id="t254" to="222307221#1" type="taxi"/>
 <trip depart="0" from="1052613455" id="t255" to="118155456#0" type="taxi"/>
 <trip depart="0" from="132817964" id="t256" to="-10425852" type="taxi"/>
 <trip depart="0" from="-42792917#2" id="t257" to="-5095173" type="taxi"/>
 <trip depart="0" from="-4353778#2" id="t258" to="35062429#2" type="taxi"/>
 <trip depart="0" from="-116049788#0" id="t259" to="-118155450" type="taxi"/>
 <trip depart="0" from="136721678" id="t260" to="-10426204#0" type="taxi"/>
 <trip depart="0" from="118864079#4" id="t261" to="-117649868" type="taxi"/>
 <trip depart="0" from="30140141" id="t262" to="-78535771" type="taxi"/>
 <trip depart="0" from="30605198" id="t263" to="169313833#0" type="taxi"/>
 <trip depart="0" from="116049444#1" id="t264" to="340206715" type="taxi"/>
 <trip depart="0" from="-26085515#0" id="t265" to="-57726373#0" type="taxi"/>
 <trip depart="0" from="121411748#1" id="t266" to="25767798#1" type="taxi"/>
 <trip depart="0" from="-62115260" id="t267" to="-285150555#0" type="taxi"/>
 <trip depart="0" from="26369585" id="t268" to="-84639229#0" type="taxi"/>
 <trip depart="0" from="-301127377" id="t269" to="-118155453" type="taxi"/>
 <trip depart="0" from="58423646" id="t270" to="-118864085" type="taxi"/>
 <trip depart="0" from="-26127182#2" id="t271" to="314252679" type="taxi"/>
 <trip depart="0" from="-10374052" id="t272" to="132852432" type="taxi"/>
 <trip depart="0" from="8102367" id="t273" to="-235047961" type="taxi"/>
 <trip depart="0" from="-122529096#5" id="t274" to="234088653#1" type="taxi"/>
 <trip depart="0" from="-61568101#0" id="t275" to="5234741" type="taxi"/>
 <trip depart="0" from="-122529096#5" id="t276" to="188956290" type="taxi"/>
 <trip depart="0" from="283762346" id="t277" to="-5234280#0" type="taxi"/>
 <trip depart="0" from="-122529094#8" id="t278" to="26348749" type="taxi"/>
 <trip depart="0" from="-51722317" id="t279" to="132047189" type="taxi"/>
 <trip depart="0" from="-369180511#0" id="t280" to="-75565714" type="taxi"/>
 <trip depart="0" from="-77606148#0" id="t281" to="4273624" type="taxi"/>
 <trip depart="0" from="-118869287" id="t282" to="23739393" type="taxi"/>
 <trip depart="0" from="-205468106" id="t283" to="-75567703#1" type="taxi"/>
 <trip depart="0" from="-101520672" id="t284" to="-33826299" type="taxi"/>
 <trip depart="0" from="5231370" id="t285" to="61566223" type="taxi"/>
 <trip depart="0" from="18648957#0" id="t286" to="-35772871" type="taxi"/>
 <trip depart="0" from="136721667" id="t287" to="93670626" type="taxi"/>
 <trip depart="0" from="-26127182#1" id="t288" to="-63322106#0" type="taxi"/>
 <trip depart="0" from="125828734" id="t289" to="4238014" type="taxi"/>
 <trip depart="0" from="38336405#1" id="t290" to="62057884#1" type="taxi"/>
 <trip depart="0" from="122529099" id="t291" to="-101520672" type="taxi"/>
 <trip depart="0" from="-84639229#0" id="t292" to="62065945#1" type="taxi"/>
 <trip depart="0" from="122388448#1" id="t293" to="631862806" type="taxi"/>
 <trip depart="0" from="15242126" id="t294" to="644345097" type="taxi"/>
 <trip depart="0" from="136867909" id="t295" to="4250372" type="taxi"/>
 <trip depart="0" from="35772871" id="t296" to="462046218" type="taxi"/>
 <trip depart="0" from="-61566225#0" id="t297" to="4680624#0" type="taxi"/>
 <trip depart="0" from="-117643614#1" id="t298" to="-369180511#0" type="taxi"/>
 <trip depart="0" from="30605198" id="t299" to="-63322102#1" type="taxi"/>
 <trip depart="0" from="-5067354#1" id="t300" to="-38281520#1" type="taxi"/>
 <trip depart="0" from="-96809683#1" id="t301" to="-136864084#2" type="taxi"/>
 <trip depart="0" from="-237386917#1" id="t302" to="24477199" type="taxi"/>
 <trip depart="0" from="38325502#1" id="t303" to="-300060711" type="taxi"/>
 <trip depart="0" from="28717819#0" id="t304" to="122529094#3" type="taxi"/>
 <trip depart="0" from="8141209" id="t305" to="78343358#1" type="taxi"/>
 <trip depart="0" from="-136721677#1" id="t306" to="5095190#0" type="taxi"/>
 <trip depart="0" from="-210457775#0" id="t307" to="-57726375#3" type="taxi"/>
 <trip depart="0" from="222307221#0" id="t308" to="34149613" type="taxi"/>
 <trip depart="0" from="-128504972" id="t309" to="86714180#1" type="taxi"/>
 <trip depart="0" from="-5234278#1" id="t310" to="234540367" type="taxi"/>
 <trip depart="0" from="126449309" id="t311" to="290255300" type="taxi"/>
 <trip depart="0" from="-84639207" id="t312" to="-117643614#0" type="taxi"/>
 <trip depart="0" from="-301127378" id="t313" to="126449231#0" type="taxi"/>
 <trip depart="0" from="-132047180" id="t314" to="144246396#1" type="taxi"/>
 <trip depart="0" from="-4353778#2" id="t315" to="-31465531#1" type="taxi"/>
 <trip depart="0" from="-85562446#0" id="t316" to="20433136#0" type="taxi"/>
 <trip depart="0" from="122529096#8" id="t317" to="-116049439#0" type="taxi"/>
 <trip depart="0" from="-38281520#1" id="t318" to="26187880#1" type="taxi"/>
 <trip depart="0" from="-63116648#1" id="t319" to="10357494" type="taxi"/>
 <trip depart="0" from="-61495637" id="t320" to="-237367748#1" type="taxi"/>
 <trip depart="0" from="-63134322#1" id="t321" to="-26037066" type="taxi"/>
 <trip depart="0" from="283762344" id="t322" to="-852319713#2" type="taxi"/>
 <trip depart="0" from="-116049443#3" id="t323" to="-23960853#0" type="taxi"/>
 <trip depart="0" from="-74693877" id="t324" to="-17265677" type="taxi"/>
 <trip depart="0" from="-84017983" id="t325" to="63322102#1" type="taxi"/>
 <trip depart="0" from="78049389" id="t326" to="219528063" type="taxi"/>
 <trip depart="0" from="-122529096#4" id="t327" to="240100844#1" type="taxi"/>
 <trip depart="0" from="-59603306" id="t328" to="906802009" type="taxi"/>
 <trip depart="0" from="-62070348" id="t329" to="61497943#1" type="taxi"/>
 <trip depart="0" from="118864084" id="t330" to="62057889" type="taxi"/>
 <trip depart="0" from="-63134322#1" id="t331" to="-121411754" type="taxi"/>
 <trip depart="0" from="906802009" id="t332" to="183247520" type="taxi"/>
 <trip depart="0" from="-118864084" id="t333" to="-10374052" type="taxi"/>
 <trip depart="0" from="26626181" id="t334" to="122529099" type="taxi"/>
 <trip depart="0" from="-101520672" id="t335" to="-118864085" type="taxi"/>
 <trip depart="0" from="5086872" id="t336" to="-995794804" type="taxi"/>
 <trip depart="0" from="26187879" id="t337" to="-136864084#1" type="taxi"/>
 <trip depart="0" from="132817964" id="t338" to="-644345091#0" type="taxi"/>
 <trip depart="0" from="154150880#1" id="t339" to="-15242128#0" type="taxi"/>
 <person depart="1.0" id="p0">
  <ride from="321098632#1" lines="taxi" parkingArea="pa126140573#0" to="126140573#0"/>
 </person>
 <person depart="18.0" id="p1">
  <ride from="-63134322#1" lines="taxi" parkingArea="pa-51722317" to="-51722317"/>
 </person>
 <trip depart="23.0" departLane="best" departSpeed="max" from="-122529098#1" id="rs_c000_i000_277" to="4353778#0"/>
 <trip depart="24.0" departLane="best" departSpeed="max" from="-117643614#1" id="rs_c000_i001_32" to="-117643614#0"/>
 <trip depart="26.0" departLane="best" departSpeed="max" from="43263108" id="rs_c001_i000_42" to="-61367459"/>
 <trip depart="27.0" departLane="best" departSpeed="max" from="-74011129#0" id="rs_c000_i001_35" to="-63322106#0"/>
 <trip depart="38.0" departLane="best" departSpeed="max" from="-62106322#0" id="rs_c000_i001_5_part1" to="-62106186#0"/>
 <trip depart="47.0" departLane="best" departSpeed="max" from="-136721671" id="rs_c000_i000_533" to="-132047178"/>
 <trip depart="51.0" departLane="best" departSpeed="max" from="51340803#1" id="rs_c001_i000_35" to="166533651"/>
 <person depart="58.0" id="p2">
  <ride from="-324738924" lines="taxi" parkingArea="pa76346323" to="76346323"/>
 </person>
 <person depart="67.0" id="p3">
  <ride from="-84017983" lines="taxi" parkingArea="pa-84656707#0" to="-84656707#0"/>
 </person>
 <person depart="75.0" id="p4">
  <ride from="-237367748#2" lines="taxi" parkingArea="pa4237991" to="4237991"/>
 </person>
 <trip depart="76.0" departLane="best" departSpeed="max" from="26040294#1" id="rs_c000_i000_880" to="26040294#2"/>
 <trip depart="80.0" departLane="best" departSpeed="max" from="96915239#1" id="rs_c000_i000_928" to="213132380"/>
 <trip depart="82.0" departLane="best" departSpeed="max" from="-5234278#1" id="rs_c000_i000_940" to="202342090#1"/>
 <trip depart="84.0" departLane="best" departSpeed="max" from="-117654815#3" id="rs_c000_i001_120" to="-117654815#2"/>
 <trip depart="86.0" departLane="best" departSpeed="max" from="301503168#1" id="rs_c001_i000_69" to="24544213"/>
 <person depart="86.0" id="p5">
  <ride from="-30141086#0" lines="taxi" parkingArea="pa29712025#0" to="29712025#0"/>
 </person>
 <person depart="93.0" id="p6">
  <ride from="4643592" lines="taxi" parkingArea="pa-4643592" to="-4643592"/>
 </person>
 <trip depart="98.0" departLane="best" departSpeed="max" from="-5234464" id="rs_c000_i000_1131" to="-30141086#0"/>
 <trip depart="100.0" departLane="best" departSpeed="max" from="84017451#0" id="rs_c000_i000_1143" to="-84016143"/>
 <person depart="101.0" id="p7">
  <ride from="137996244#0" lines="taxi" parkingArea="pa-122529114#1" to="-122529114#1"/>
 </person>
 <trip depart="107.0" departLane="best" departSpeed="max" from="-34777320" id="rs_c000_i000_1213" to="-24399325#0"/>
 <trip depart="109.0" departLane="best" departSpeed="max" from="51340803#1" id="rs_c000_i001_146" to="166533651"/>
 <person depart="118.0" id="p8">
  <ride from="-136721667" lines="taxi" parkingArea="pa-852319713#2" to="-852319713#2"/>
 </person>
 <trip depart="119.0" departLane="best" departSpeed="max" from="301503168#1" id="rs_c001_i000_113" to="24544213"/>
 <person depart="121.0" id="p9">
  <ride from="890973612" lines="taxi" parkingArea="pa126449309" to="126449309"/>
 </person>
 <trip depart="124.0" departLane="best" departSpeed="max" from="4244655" id="rs_c000_i000_1413" to="644345097"/>
 <trip depart="128.0" departLane="best" departSpeed="max" from="-118155453" id="rs_c000_i001_193" to="-34776023#0"/>
 <trip depart="136.0" departLane="best" departSpeed="max" from="10559201" id="rs_c000_i001_200" to="-84639212"/>