<?xml version="1.0" encoding="utf-8"?>
<routes>
 <vType color="green" id="taxi" personCapacity="2" vClass="taxi">
  <param key="has.taxi.device" value="true"/>
  <param key="device.taxi.pickUpDuration" value="0"/>
  <param key="device.taxi.dropOffDuration" value="10"/>
  <param key="device.taxi.parking" value="true"/>
 </vType>
 <trip depart="0" from="-79499699" id="t30" to="-300981184#1" type="taxi"/>
 <trip depart="0" from="26348749" id="t29" to="-78535798#1" type="taxi"/>
 <trip depart="0" from="5012105" id="t28" to="-137388192#0" type="taxi"/>
 <trip depart="0" from="-57726375#1" id="t27" to="83173842#1" type="taxi"/>
 <trip depart="0" from="-129840211" id="t26" to="-5038761" type="taxi"/>
 <trip depart="0" from="6935285#0" id="t25" to="-4326296#0" type="taxi"/>
 <trip depart="0" from="-37102272#0" id="t24" to="-127605221#0" type="taxi"/>
 <trip depart="0" from="-116585422" id="t23" to="238878536" type="taxi"/>
 <trip depart="0" from="285466817" id="t22" to="333035355" type="taxi"/>
 <trip depart="0" from="-189797586" id="t21" to="175969318" type="taxi"/>
 <trip depart="0" from="-218601759#1" id="t20" to="233226306" type="taxi"/>
 <trip depart="0" from="-134239748#0" id="t19" to="4370233#1" type="taxi"/>
 <trip depart="0" from="126449309" id="t18" to="-62065942#0" type="taxi"/>
 <trip depart="0" from="-241155330#1" id="t17" to="118864079#0" type="taxi"/>
 <trip depart="0" from="25871614" id="t16" to="-306528031" type="taxi"/>
 <trip depart="0" from="175969318" id="t15" to="-4233644#0" type="taxi"/>
 <trip depart="0" from="-335084841#0" id="t14" to="126449221#0" type="taxi"/>
 <trip depart="0" from="34734674#4" id="t13" to="-26127182#1" type="taxi"/>
 <trip depart="0" from="4341413" id="t12" to="993029179#0" type="taxi"/>
 <trip depart="0" from="97678787#2" id="t11" to="-95195865#0" type="taxi"/>
 <trip depart="0" from="24426767#0" id="t10" to="-352986784" type="taxi"/>
 <trip depart="0" from="-74011129#0" id="t9" to="-982318111#1" type="taxi"/>
 <trip depart="0" from="35031220" id="t8" to="35605878" type="taxi"/>
 <trip depart="0" from="-10561619" id="t7" to="-125590811#0" type="taxi"/>
 <trip depart="0" from="25620728" id="t6" to="210994766" type="taxi"/>
 <trip depart="0" from="52344920" id="t5" to="8034265" type="taxi"/>
 <trip depart="0" from="-321098632#0" id="t4" to="-211043504" type="taxi"/>
 <trip depart="0" from="97097111#1" id="t3" to="-48043110" type="taxi"/>
 <trip depart="0" from="117631284" id="t2" to="-6167341" type="taxi"/>
 <trip depart="0" from="-122529096#7" id="t1" to="-211042303#2" type="taxi"/>
 <trip depart="0" from="-117355642" id="t0" to="-38325502#0" type="taxi"/>
 <trip depart="1.0" departLane="best" departSpeed="max" from="-137353413#0" id="rs_c008_i000_0" to="-106089939#4"/>
 <trip depart="1.0" departLane="best" departSpeed="max" from="-333156359#4" id="rs_c002_i000_1" to="-130735705"/>
 <trip depart="1.0" departLane="best" departSpeed="max" from="-192591526" id="rs_c003_i000_1" to="7918124#9"/>
 <trip depart="3.0" departLane="best" departSpeed="max" from="130735705" id="rs_c003_i001_4" to="-130735705"/>
 <trip depart="3.0" departLane="best" departSpeed="max" from="909281237" id="rs_c000_i000_19" to="-8423754"/>
 <trip depart="3.0" departLane="best" departSpeed="max" from="222307221#0" id="rs_c007_i000_6" to="118864085"/>
 <trip depart="4.0" departLane="best" departSpeed="max" from="-76491528" id="rs_c005_i000_4" to="-343475028#0"/>
 <trip depart="4.0" departLane="best" departSpeed="max" from="441119068" id="rs_c008_i000_13" to="643081181#1"/>
 <trip depart="4.0" departLane="best" departSpeed="max" from="30690515#0" id="rs_c008_i000_16" to="139189569"/>
 <trip depart="4.0" departLane="best" departSpeed="max" from="26698125" id="rs_c000_i000_30" to="-43300812"/>
 <trip depart="5.0" departLane="best" departSpeed="max" from="4872482" id="rs_c000_i000_54" to="4872506"/>
 <person depart="5.0" id="p0">
  <ride from="-333137881" lines="taxi" parkingArea="pa333137896#1" to="333137896#1"/>
 </person>
 <trip depart="6.0" departLane="best" departSpeed="max" from="138350779" id="rs_c000_i000_59" to="122388448#1"/>
 <trip depart="6.0" departLane="best" departSpeed="max" from="-137353410#1" id="rs_c000_i000_64" to="-134239748#2"/>
 <trip depart="7.0" departLane="best" departSpeed="max" from="4705004#3" id="rs_c007_i000_18" to="-60753020#1"/>
 <person depart="8.0" id="p1">
  <ride from="154150880#1" lines="taxi" parkingArea="pa331540404#1" to="331540404#1"/>
 </person>
 <trip depart="8.0" departLane="best" departSpeed="max" from="-24423403#11" id="rs_c000_i000_82" to="24423403#11"/>
 <trip depart="9.0" departLane="best" departSpeed="max" from="34149613" id="rs_c000_i000_98" to="-34149612#0"/>
 <trip depart="10.0" departLane="best" departSpeed="max" from="27520213" id="rs_c004_i000_21_part0" to="-125371794#0"/>
 <trip depart="11.0" departLane="best" departSpeed="max" from="4238093#0" id="rs_c008_i000_41" to="4238093#1"/>
 <trip depart="11.0" departLane="best" departSpeed="max" from="-119051524" id="rs_c007_i000_38" to="-119051526#0"/>
 <person depart="11.0" id="p2">
  <ride from="-151616414" lines="taxi" parkingArea="pa156947156" to="156947156"/>
 </person>
 <trip depart="11.0" departLane="best" departSpeed="max" from="-63113207" id="rs_c005_i000_37" to="56253837"/>
 <trip depart="11.0" departLane="best" departSpeed="max" from="-211129670#0" id="rs_c001_i000_35" to="-4232328"/>
 <trip depart="13.0" departLane="best" departSpeed="max" from="366616515" id="rs_c001_i000_44" to="116049442"/>
 <person depart="14.0" id="p3">
  <ride from="4341555" lines="taxi" parkingArea="pa-96824209" to="-96824209"/>
 </person>
 <trip depart="14.0" departLane="best" departSpeed="max" from="-42792917#1" id="rs_c008_i000_53" to="-42792917#0"/>
 <trip depart="14.0" departLane="best" departSpeed="max" from="27520213" id="rs_c003_i000_38" to="-125371794#0"/>
 <trip depart="14.0" departLane="best" departSpeed="max" from="443548218" id="rs_c002_i001_3" to="-793152462"/>
 <person depart="14.0" id="p4">
  <ride from="-46596615#1" lines="taxi" parkingArea="pa-192591535#1" to="-192591535#1"/>
 </person>
 <trip depart="14.0" departLane="best" departSpeed="max" from="459807866" id="rs_c000_i000_155" to="147630425#2"/>
 <trip depart="14.0" departLane="best" departSpeed="max" from="309731071#1" id="rs_c000_i001_25" to="98882767"/>
 <trip depart="14.0" departLane="best" departSpeed="max" from="4644967" id="rs_c000_i001_27_part0" to="-4689427#1"/>
 <trip depart="15.0" departLane="best" departSpeed="max" from="232184388" id="rs_c005_i000_44" to="4238014"/>
 <trip depart="15.0" departLane="best" departSpeed="max" from="-234540368" id="rs_c003_i000_44" to="234540367"/>
 <trip depart="15.0" departLane="best" departSpeed="max" from="183403755#3" id="rs_c003_i001_9" to="-93871521#0"/>
 <trip depart="16.0" departLane="best" departSpeed="max" from="441119068" id="rs_c003_i000_46" to="643081181#1"/>
 <trip depart="17.0" departLane="best" departSpeed="max" from="-982318111#1" id="rs_c003_i000_52" to="982318111#1"/>
 <trip depart="18.0" departLane="best" departSpeed="max" from="-4343683#1" id="rs_c005_i000_58" to="-95195865#1"/>
 <trip depart="18.0" departLane="best" departSpeed="max" from="-4685949" id="rs_c003_i000_56" to="-305322857#0"/>
 <trip depart="18.0" departLane="best" departSpeed="max" from="4343671#1" id="rs_c007_i000_62" to="4343671#2"/>
 <trip depart="19.0" departLane="best" departSpeed="max" from="-44038367#0" id="rs_c002_i000_55" to="-100721228"/>
 <person depart="20.0" id="p5">
  <ride from="5012105" lines="taxi" parkingArea="pa-4646544#4" to="-4646544#4"/>
 </person>
 <trip depart="20.0" departLane="best" departSpeed="max" from="-125351161#1" id="rs_c000_i000_213" to="-125351161#0"/>
 <trip depart="21.0" departLane="best" departSpeed="max" from="-4688237" id="rs_c002_i001_6" to="-4343685#2"/>
 <trip depart="22.0" departLane="best" departSpeed="max" from="302368828#1" id="rs_c000_i000_228" to="302368831#2"/>
 <trip depart="22.0" departLane="best" departSpeed="max" from="-61543316#1" id="rs_c000_i000_230" to="-61984349#0"/>
 <trip depart="22.0" departLane="best" departSpeed="max" from="101696905#1" id="rs_c000_i001_46" to="76737122#1"/>
 <trip depart="22.0" departLane="best" departSpeed="max" from="-221319006" id="rs_c007_i000_73" to="-108317853"/>
 <trip depart="23.0" departLane="best" departSpeed="max" from="-968592406#0" id="rs_c000_i000_233" to="-156117446#2"/>
 <trip depart="23.0" departLane="best" departSpeed="max" from="370395158" id="rs_c005_i000_76" to="349048226#0"/>
 <trip depart="23.0" departLane="best" departSpeed="max" from="4246321" id="rs_c008_i000_82" to="210994589"/>
 <trip depart="24.0" departLane="best" departSpeed="max" from="-61495637" id="rs_c002_i000_71" to="-75567703#1"/>
 <trip depart="24.0" departLane="best" departSpeed="max" from="-4263482" id="rs_c003_i001_12" to="107747142#1"/>
 <trip depart="24.0" departLane="best" departSpeed="max" from="-74315735#0" id="rs_c000_i000_254" to="195550961#1"/>
 <trip depart="24.0" departLane="best" departSpeed="max" from="-37864054" id="rs_c004_i000_62" to="125589739#1"/>
 <trip depart="25.0" departLane="best" departSpeed="max" from="332195301" id="rs_c002_i000_76" to="846117751"/>
 <trip depart="25.0" departLane="best" departSpeed="max" from="61367419#1" id="rs_c007_i001_5" to="61982179"/>
 <trip depart="26.0" departLane="best" departSpeed="max" from="-116712800#1" id="rs_c000_i000_288" to="-116712800#0"/>
 <trip depart="26.0" departLane="best" departSpeed="max" from="-139507998" id="rs_c003_i000_76" to="-10560717"/>
 <trip depart="27.0" departLane="best" departSpeed="max" from="-26244626#0" id="rs_c007_i000_92" to="-8653439"/>
 <trip depart="28.0" departLane="best" departSpeed="max" from="-221166766#0" id="rs_c000_i000_300_part0" to="-108323051"/>
 <trip depart="28.0" departLane="best" departSpeed="max" from="635683965" id="rs_c007_i001_7" to="884918866"/>
 <trip depart="29.0" departLane="best" departSpeed="max" from="124540717" id="rs_c000_i000_312" to="124540716#0"/>
 <trip depart="29.0" departLane="best" departSpeed="max" from="-4234230" id="rs_c005_i000_91" to="-235031516#0"/>
 <trip depart="29.0" departLane="best" departSpeed="max" from="5067357#1" id="rs_c005_i000_92" to="-58768887#0"/>
 <trip depart="29.0" departLane="best" departSpeed="max" from="-129784634#0" id="rs_c008_i000_98" to="-205258664#1"/>
 <trip depart="30.0" departLane="best" departSpeed="max" from="-161176858" id="rs_c001_i000_93" to="-234088653#0"/>
 <trip depart="30.0" departLane="best" departSpeed="max" from="-5234137" id="rs_c002_i000_91" to="-4237993#0"/>
 <trip depart="30.0" departLane="best" departSpeed="max" from="-369180509" id="rs_c007_i000_102" to="-63116648#1"/>
 <trip depart="31.0" departLane="best" departSpeed="max" from="4238014" id="rs_c001_i000_102" to="-371261963#0"/>
 <trip depart="31.0" departLane="best" departSpeed="max" from="443548218" id="rs_c007_i000_104" to="-793152462"/>
 <trip depart="32.0" departLane="best" departSpeed="max" from="122529104#4" id="rs_c005_i000_98" to="-95937728#1"/>
 <trip depart="32.0" departLane="best" departSpeed="max" from="4229437" id="rs_c008_i000_104" to="98882767"/>
 <trip depart="33.0" departLane="best" departSpeed="max" from="211042302#1" id="rs_c000_i000_370" to="145732311"/>
 <trip depart="34.0" departLane="best" departSpeed="max" from="47089824" id="rs_c002_i000_103" to="365469908"/>
 <trip depart="34.0" departLane="best" departSpeed="max" from="-125143981#1" id="rs_c007_i000_114" to="-125351142#1"/>
 <trip depart="34.0" departLane="best" departSpeed="max" from="122529104#4" id="rs_c008_i000_113_part0" to="-95937728#1"/>
 <trip depart="35.0" departLane="best" departSpeed="max" from="-6167342" id="rs_c008_i000_117" to="5761267#7"/>
 <trip depart="35.0" departLane="best" departSpeed="max" from="166533654#1" id="rs_c005_i001_14" to="30529010#1"/>
 <trip depart="36.0" departLane="best" departSpeed="max" from="-337470015#3" id="rs_c007_i001_12" to="-337470015#2"/>
 <trip depart="37.0" departLane="best" departSpeed="max" from="-160643991" id="rs_c004_i000_98" to="-125351155"/>
 <trip depart="37.0" departLane="best" departSpeed="max" from="-147133783#1" id="rs_c002_i000_113" to="51340252"/>
 <trip depart="37.0" departLane="best" departSpeed="max" from="330064107" id="rs_c000_i000_411" to="441119081#1"/>
 <trip depart="38.0" departLane="best" departSpeed="max" from="-24423403#7" id="rs_c002_i000_115" to="-95937728#2"/>
 <trip depart="38.0" departLane="best" departSpeed="max" from="-211120149" id="rs_c000_i000_430" to="5376397#1"/>
 <trip depart="38.0" departLane="best" departSpeed="max" from="-220368971#2" id="rs_c004_i000_100" to="-220368971#1"/>
 <trip depart="39.0" departLane="best" departSpeed="max" from="-4690495#1" id="rs_c008_i000_129" to="-4690495#0"/>
 <trip depart="39.0" departLane="best" departSpeed="max" from="-4234230" id="rs_c000_i000_440" to="-235031516#0"/>
 <trip depart="40.0" departLane="best" departSpeed="max" from="10377170" id="rs_c007_i000_135" to="10377201"/>
 <trip depart="40.0" departLane="best" departSpeed="max" from="-10561865" id="rs_c005_i000_118" to="139506292#1"/>
 <trip depart="40.0" departLane="best" departSpeed="max" from="-117099147#2" id="rs_c002_i000_123" to="117099147#2"/>
 <trip depart="41.0" departLane="best" departSpeed="max" from="-806060833" id="rs_c000_i000_458" to="889565311#1"/>
 <trip depart="41.0" departLane="best" departSpeed="max" from="-117590612" id="rs_c000_i000_460" to="24407231#1"/>
 <trip depart="41.0" departLane="best" departSpeed="max" from="23783973" id="rs_c004_i000_107" to="238171203#1"/>
 <trip depart="42.0" departLane="best" departSpeed="max" from="25361892#3" id="rs_c000_i000_470" to="25361892#4"/>
 <trip depart="43.0" departLane="best" departSpeed="max" from="-352689594" id="rs_c007_i000_148" to="-352689596#1"/>
 <trip depart="44.0" departLane="best" departSpeed="max" from="233171094#3" id="rs_c002_i000_134" to="-75567703#0"/>
 <trip depart="44.0" departLane="best" departSpeed="max" from="-125351199#0" id="rs_c001_i000_163" to="-125351161#0"/>
 <trip depart="46.0" departLane="best" departSpeed="max" from="-10425852" id="rs_c005_i000_129" to="-14573382#2"/>
 <trip depart="47.0" departLane="best" departSpeed="max" from="-442031137#0" id="rs_c008_i000_46" to="-324488712"/>
 <trip depart="47.0" departLane="best" departSpeed="max" from="-839548820" id="rs_c007_i000_158" to="-22980736"/>
 <trip depart="47.0" departLane="best" departSpeed="max" from="242050831#1" id="rs_c002_i000_148" to="41873559#1"/>
 <trip depart="47.0" departLane="best" departSpeed="max" from="24429415" id="rs_c005_i001_18" to="-61367412"/>
 <trip depart="48.0" departLane="best" departSpeed="max" from="4343682#1" id="rs_c002_i000_153" to="-95195865#1"/>
 <trip depart="49.0" departLane="best" departSpeed="max" from="305319118" id="rs_c000_i001_99" to="-944997709"/>
 <trip depart="50.0" departLane="best" departSpeed="max" from="-217763498#0" id="rs_c006_i000_129" to="-84744384#0"/>
 <person depart="50.0" id="p6">
  <ride from="364427970" lines="taxi" parkingArea="pa133113949" to="133113949"/>
 </person>
 <trip depart="51.0" departLane="best" departSpeed="max" from="-122978214" id="rs_c001_i002_5" to="26965418"/>
 <trip depart="52.0" departLane="best" departSpeed="max" from="46606593" id="rs_c008_i000_168" to="4872482"/>
 <trip depart="52.0" departLane="best" departSpeed="max" from="443548218" id="rs_c007_i000_183" to="147628763#1"/>
 <person depart="52.0" id="p7">
  <ride from="-404119038" lines="taxi" parkingArea="pa83173842#1" to="83173842#1"/>
 </person>
 <person depart="53.0" id="p8">
  <ride from="223125596" lines="taxi" parkingArea="pa133114633" to="133114633"/>
 </person>
 <trip depart="53.0" departLane="best" departSpeed="max" from="266161715#2" id="rs_c007_i000_187" to="266161715#3"/>
 <trip depart="53.0" departLane="best" departSpeed="max" from="25665051" id="rs_c006_i000_145" to="-304920093#0"/>
 <trip depart="53.0" departLane="best" departSpeed="max" from="-8730073" id="rs_c005_i000_153" to="8730073"/>
 <trip depart="54.0" departLane="best" departSpeed="max" from="-358443710#1" id="rs_c007_i000_190" to="-358443710#0"/>
 <trip depart="55.0" departLane="best" departSpeed="max" from="4261934" id="rs_c002_i000_154" to="285137501"/>
 <person depart="56.0" id="p9">
  <ride from="-218601759#1" lines="taxi" parkingArea="pa-218601759#0" to="-218601759#0"/>
 </person>
 <person depart="57.0" id="p10">
  <ride from="-4233643" lines="taxi" parkingArea="pa-4233645#0" to="-4233645#0"/>
 </person>
 <trip depart="57.0" departLane="best" departSpeed="max" from="-5012129" id="rs_c003_i002_7" to="-4646544#1"/>
 <trip depart="58.0" departLane="best" departSpeed="max" from="-147628763#0" id="rs_c008_i000_191" to="147628762"/>
 <trip depart="58.0" departLane="best" departSpeed="max" from="141783126#1" id="rs_c000_i001_112" to="211326963#1"/>
 <trip depart="59.0" departLane="best" departSpeed="max" from="125351142#7" id="rs_c006_i000_162_part0" to="30016028#1"/>
 <trip depart="59.0" departLane="best" departSpeed="max" from="367159751" id="rs_c005_i000_170" to="96934606"/>
 <trip depart="59.0" departLane="best" departSpeed="max" from="-24423403#7" id="rs_c005_i000_172" to="-95937728#2"/>
 <trip depart="59.0" departLane="best" departSpeed="max" from="160488345#0" id="rs_c002_i000_193" to="124540761#1"/>
 <trip depart="59.0" departLane="best" departSpeed="max" from="237386917#0" id="rs_c008_i002_5" to="95916457"/>
 <person depart="60.0" id="p11">
  <ride from="125351165#0" lines="taxi" parkingArea="pa125351165#1" to="125351165#1"/>
 </person>
 <trip depart="60.0" departLane="best" departSpeed="max" from="407989294#1" id="rs_c006_i000_168" to="-925623512#0"/>
 <trip depart="61.0" departLane="best" departSpeed="max" from="78060839#0" id="rs_c005_i000_177" to="368532474#3"/>
 <trip depart="61.0" departLane="best" departSpeed="max" from="-108443219#0" id="rs_c001_i000_223_part0" to="-131780631#0"/>
 <trip depart="62.0" departLane="best" departSpeed="max" from="177401368#0" id="rs_c004_i000_171" to="177401368#1"/>
 <trip depart="62.0" departLane="best" departSpeed="max" from="-5047237" id="rs_c002_i000_205" to="5047230#1"/>
 <trip depart="63.0" departLane="best" departSpeed="max" from="-52291443" id="rs_c006_i000_177" to="-20179292#0"/>
 <trip depart="63.0" departLane="best" departSpeed="max" from="-212706393" id="rs_c004_i000_173" to="161182980#0"/>
 <trip depart="63.0" departLane="best" departSpeed="max" from="-30001656" id="rs_c000_i000_727" to="-644345091#0"/>
 <trip depart="64.0" departLane="best" departSpeed="max" from="-328813517" id="rs_c008_i000_209" to="-142497100#0"/>
 <trip depart="64.0" departLane="best" departSpeed="max" from="331540404#1" id="rs_c000_i000_746" to="217696288#1"/>
 <trip depart="65.0" departLane="best" departSpeed="max" from="-109380698#1" id="rs_c005_i001_28" to="-109380698#0"/>
 <trip depart="66.0" departLane="best" departSpeed="max" from="-183401315#2" id="rs_c004_i000_180" to="-183401315#1"/>
 <trip depart="66.0" departLane="best" departSpeed="max" from="-4685999#1" id="rs_c000_i000_763" to="-4685999#0"/>
 <trip depart="66.0" departLane="best" departSpeed="max" from="-854330911" id="rs_c000_i000_766" to="-607974119"/>
 <trip depart="67.0" departLane="best" departSpeed="max" from="-84020452" id="rs_c003_i000_172" to="-94194703"/>
 <trip depart="67.0" departLane="best" departSpeed="max" from="-16875468" id="rs_c002_i000_222" to="213132380"/>
 <trip depart="68.0" departLane="best" departSpeed="max" from="97097111#1" id="rs_c000_i000_736" to="96596623#1"/>
 <trip depart="68.0" departLane="best" departSpeed="max" from="-7918313#1" id="rs_c000_i000_800_part0" to="-7918313#0"/>
 <trip depart="69.0" departLane="best" departSpeed="max" from="-14573382#1" id="rs_c000_i000_809" to="-14573382#0"/>
 <trip depart="71.0" departLane="best" departSpeed="max" from="-26165752#0" id="rs_c001_i000_254" to="-4361529#1"/>
 <trip depart="72.0" departLane="best" departSpeed="max" from="95195865#4" id="rs_c000_i001_140" to="944997710"/>
 <trip depart="72.0" departLane="best" departSpeed="max" from="-196663482" id="rs_c000_i000_836" to="-284888908"/>
 <trip depart="72.0" departLane="best" departSpeed="max" from="140372708#1" id="rs_c000_i000_841" to="233226306"/>
 <trip depart="72.0" departLane="best" departSpeed="max" from="15879000#0" id="rs_c002_i000_239" to="39339824"/>
 <trip depart="72.0" departLane="best" departSpeed="max" from="432309153" id="rs_c003_i002_8" to="61367434"/>
 <trip depart="73.0" departLane="best" departSpeed="max" from="145737637#1" id="rs_c006_i000_204" to="96934605"/>
 <trip depart="73.0" departLane="best" departSpeed="max" from="-4952786#0" id="rs_c005_i000_217" to="211119798#1"/>
 <trip depart="73.0" departLane="best" departSpeed="max" from="-62116257" id="rs_c001_i000_258" to="-75554984"/>
 <trip depart="74.0" departLane="best" departSpeed="max" from="130267473#1" id="rs_c007_i000_178_part0" to="-37102264"/>
 <trip depart="75.0" departLane="best" departSpeed="max" from="130997946" id="rs_c007_i000_256" to="25894166#0"/>
 <trip depart="76.0" departLane="best" departSpeed="max" from="-4252245" id="rs_c000_i000_876" to="-218601759#0"/>
 <trip depart="77.0" departLane="best" departSpeed="max" from="36244272" id="rs_c006_i000_218" to="364419353#1"/>
 <trip depart="77.0" departLane="best" departSpeed="max" from="-218601759#2" id="rs_c000_i000_886" to="218601759#2"/>
 <trip depart="78.0" departLane="best" departSpeed="max" from="-4232328" id="rs_c008_i000_247" to="530282945#1"/>
 <person depart="78.0" id="p12">
  <ride from="297680872" lines="taxi" parkingArea="pa263421374" to="263421374"/>
 </person>
 <trip depart="78.0" departLane="best" departSpeed="max" from="-77460956" id="rs_c000_i000_892_part0" to="-191542155"/>
 <trip depart="79.0" departLane="best" departSpeed="max" from="-138281217" id="rs_c003_i000_215" to="312575277#2"/>
 <trip depart="79.0" departLane="best" departSpeed="max" from="5234590" id="rs_c002_i000_263" to="-331540413"/>
 <trip depart="80.0" departLane="best" departSpeed="max" from="-75732865" id="rs_c001_i000_284" to="-63540897"/>
 <trip depart="81.0" departLane="best" departSpeed="max" from="407989294#1" id="rs_c007_i000_276" to="-925623512#0"/>
 <trip depart="81.0" departLane="best" departSpeed="max" from="-140497659#1" id="rs_c006_i000_231" to="-140497659#0"/>
 <trip depart="81.0" departLane="best" departSpeed="max" from="-52881755" id="rs_c001_i000_290" to="-52582072#6"/>
 <trip depart="82.0" departLane="best" departSpeed="max" from="4343713#3" id="rs_c002_i000_252" to="71377755"/>
 <trip depart="82.0" departLane="best" departSpeed="max" from="284410130" id="rs_c008_i001_28" to="284410129"/>
 <trip depart="83.0" departLane="best" departSpeed="max" from="137365445" id="rs_c003_i000_224" to="-4343683#1"/>
 <trip depart="84.0" departLane="best" departSpeed="max" from="-117057368" id="rs_c007_i000_282" to="129822724#0"/>
 <trip depart="85.0" departLane="best" departSpeed="max" from="-125351162#1" id="rs_c004_i000_241" to="24423403#10"/>
 <trip depart="85.0" departLane="best" departSpeed="max" from="-10519431" id="rs_c001_i000_305" to="10519419"/>
 <trip depart="86.0" departLane="best" departSpeed="max" from="220370217#0" id="rs_c001_i000_308" to="-9637828"/>
 <trip depart="86.0" departLane="best" departSpeed="max" from="160807826#1" id="rs_c001_i000_309" to="-169310108#2"/>
 <trip depart="86.0" departLane="best" departSpeed="max" from="4244655" id="rs_c002_i000_288" to="-5230785"/>
 <trip depart="87.0" departLane="best" departSpeed="max" from="26349565#0" id="rs_c007_i001_31" to="984011718"/>
 <trip depart="87.0" departLane="best" departSpeed="max" from="-26165752#0" id="rs_c004_i000_246" to="-136864084#2"/>
 <person depart="87.0" id="p13">
  <ride from="-305549034#1" lines="taxi" parkingArea="pa441119081#1" to="441119081#1"/>
 </person>
 <trip depart="88.0" departLane="best" departSpeed="max" from="109874905#2" id="rs_c007_i000_52" to="266161715#2"/>
 <trip depart="88.0" departLane="best" departSpeed="max" from="-83510232#0" id="rs_c008_i000_285" to="-313656937"/>
 <trip depart="89.0" departLane="best" departSpeed="max" from="4682936#1" id="rs_c005_i000_272" to="4343685#4"/>
 <trip depart="89.0" departLane="best" departSpeed="max" from="8064520" id="rs_c000_i002_26" to="-8064520"/>
 <trip depart="89.0" departLane="best" departSpeed="max" from="-226442567" id="rs_c000_i000_1020" to="209845127"/>
 <trip depart="89.0" departLane="best" departSpeed="max" from="-160203272" id="rs_c000_i000_1029_part0" to="126501353"/>
 <person depart="90.0" id="p14">
  <ride from="-183401315#1" lines="taxi" parkingArea="pa-183401315#0" to="-183401315#0"/>
 </person>
 <trip depart="90.0" departLane="best" departSpeed="max" from="1015671439" id="rs_c003_i000_237" to="247878856"/>
 <trip depart="91.0" departLane="best" departSpeed="max" from="-337470020" id="rs_c005_i000_277" to="-95952109"/>
 <trip depart="91.0" departLane="best" departSpeed="max" from="-24049140#1" id="rs_c001_i000_317" to="-24049140#0"/>
 <person depart="93.0" id="p15">
  <ride from="-4263979#0" lines="taxi" parkingArea="pa-34571633#1" to="-34571633#1"/>
 </person>
 <trip depart="94.0" departLane="best" departSpeed="max" from="4227193" id="rs_c002_i002_0" to="133113959#0"/>
 <trip depart="94.0" departLane="best" departSpeed="max" from="-25587246#0" id="rs_c005_i000_281" to="-25587247"/>
 <person depart="95.0" id="p16">
  <ride from="-4690376" lines="taxi" parkingArea="pa-287182274#0" to="-287182274#0"/>
 </person>
 <person depart="95.0" id="p17">
  <ride from="4705004#3" lines="taxi" parkingArea="pa-60753020#1" to="-60753020#1"/>
 </person>
 <trip depart="95.0" departLane="best" departSpeed="max" from="-10436546" id="rs_c000_i000_1108" to="-51340266#0"/>
 <trip depart="96.0" departLane="best" departSpeed="max" from="-364037354" id="rs_c007_i000_318" to="-364037356"/>
 <trip depart="96.0" departLane="best" departSpeed="max" from="122590746" id="rs_c004_i000_263" to="238134444"/>
 <trip depart="96.0" departLane="best" departSpeed="max" from="-22980731" id="rs_c003_i000_257" to="15928588#1"/>
 <person depart="96.0" id="p18">
  <ride from="-24423403#13" lines="taxi" parkingArea="pa-95937943#3" to="-95937943#3"/>
 </person>
 <trip depart="97.0" departLane="best" departSpeed="max" from="-156117465" id="rs_c005_i000_286" to="-636388801#0"/>
 <trip depart="97.0" departLane="best" departSpeed="max" from="140372708#1" id="rs_c000_i000_1024" to="233226306"/>
 <trip depart="97.0" departLane="best" departSpeed="max" from="-16345612#0" id="rs_c004_i000_264" to="-183247519#0"/>
 <trip depart="99.0" departLane="best" departSpeed="max" from="30693229" id="rs_c000_i000_1155" to="138669850"/>
 <trip depart="101.0" departLane="best" departSpeed="max" from="8597239" id="rs_c008_i000_334" to="8597240"/>
 <trip depart="101.0" departLane="best" departSpeed="max" from="-341878808#2" id="rs_c006_i000_288" to="-341878808#1"/>
 <trip depart="102.0" departLane="best" departSpeed="max" from="-125590811#0" id="rs_c000_i000_118" to="180976534#1"/>
 <trip depart="102.0" departLane="best" departSpeed="max" from="-36912244#1" id="rs_c005_i000_95" to="-36912244#0"/>
 <trip depart="102.0" departLane="best" departSpeed="max" from="-367001370" id="rs_c000_i000_1188" to="10377201"/>
 <trip depart="102.0" departLane="best" departSpeed="max" from="-4252245" id="rs_c000_i000_1192" to="-218601759#0"/>
 <trip depart="102.0" departLane="best" departSpeed="max" from="-35062220#0" id="rs_c001_i000_357" to="35062221"/>
 <trip depart="102.0" departLane="best" departSpeed="max" from="147628760" id="rs_c002_i000_332" to="-190639980"/>
 <trip depart="104.0" departLane="best" departSpeed="max" from="333137896#1" id="rs_c001_i000_353" to="333137901#1"/>
 <trip depart="104.0" departLane="best" departSpeed="max" from="25361892#3" id="rs_c003_i000_282" to="25361892#4"/>
 <trip depart="104.0" departLane="best" departSpeed="max" from="-139079946#0" id="rs_c002_i001_39" to="285123679"/>
 <trip depart="106.0" departLane="best" departSpeed="max" from="40009015" id="rs_c001_i000_370_part0" to="257036220#0"/>
 <trip depart="107.0" departLane="best" departSpeed="max" from="-117623505" id="rs_c005_i000_311" to="286342117"/>
 <person depart="107.0" id="p19">
  <ride from="-57726375#2" lines="taxi" parkingArea="pa122529114#1" to="122529114#1"/>
 </person>
 <trip depart="107.0" departLane="best" departSpeed="max" from="-136721681" id="rs_c000_i000_1254" to="-63116620#1"/>
 <trip depart="108.0" departLane="best" departSpeed="max" from="-193684941" id="rs_c006_i000_300" to="-193684946#0"/>
 <person depart="108.0" id="p20">
  <ride from="141783126#1" lines="taxi" parkingArea="pa211326963#1" to="211326963#1"/>
 </person>
 <trip depart="109.0" departLane="best" departSpeed="max" from="-44149187" id="rs_c005_i000_90" to="993027490"/>
 <trip depart="109.0" departLane="best" departSpeed="max" from="10425893#2" id="rs_c007_i000_358" to="10425893#3"/>
 <trip depart="109.0" departLane="best" departSpeed="max" from="118864079#0" id="rs_c000_i000_1268" to="118864079#1"/>
 <trip depart="109.0" departLane="best" departSpeed="max" from="-122529099" id="rs_c000_i000_1274" to="122529099"/>
 <trip depart="109.0" departLane="best" departSpeed="max" from="441119081#1" id="rs_c001_i000_385" to="-441121156"/>
 <trip depart="110.0" departLane="best" departSpeed="max" from="-125371794#1" id="rs_c003_i000_299_part0" to="-125371794#0"/>
 <person depart="110.0" id="p21">
  <ride from="238054723#1" lines="taxi" parkingArea="pa51156527" to="51156527"/>
 </person>
 <trip depart="111.0" departLane="best" departSpeed="max" from="-44149187" id="rs_c001_i000_130" to="993027490"/>