<?xml version="1.0" encoding="utf-8"?>
<routes>
 <vType color="green" id="taxi" personCapacity="2" vClass="taxi">
  <param key="has.taxi.device" value="true"/>
  <param key="device.taxi.pickUpDuration" value="0"/>
  <param key="device.taxi.dropOffDuration" value="10"/>
  <param key="device.taxi.parking" value="true"/>
 </vType>
 <trip depart="0" from="116049438" id="t251" to="-125351162#0" type="taxi"/>
 <trip depart="0" from="125684101#0" id="t250" to="10363555" type="taxi"/>
 <trip depart="0" from="80497803#1" id="t249" to="-101486395" type="taxi"/>
 <trip depart="0" from="4229457#0" id="t248" to="-4680630" type="taxi"/>
 <trip depart="0" from="697756942" id="t247" to="63134322#1" type="taxi"/>
 <trip depart="0" from="24592573" id="t246" to="113586408#0" type="taxi"/>
 <trip depart="0" from="24823117#2" id="t245" to="-62116257" type="taxi"/>
 <trip depart="0" from="147633302#1" id="t244" to="-10373960" type="taxi"/>
 <trip depart="0" from="-332253063#0" id="t243" to="117590604" type="taxi"/>
 <trip depart="0" from="35062429#4" id="t242" to="286340278" type="taxi"/>
 <trip depart="0" from="4220452#0" id="t241" to="-10363538" type="taxi"/>
 <trip depart="0" from="-10516147#2" id="t240" to="-10426053#2" type="taxi"/>
 <trip depart="0" from="17265675" id="t239" to="-5234969" type="taxi"/>
 <trip depart="0" from="-17265677" id="t238" to="233171092" type="taxi"/>
 <trip depart="0" from="-138350778#0" id="t237" to="39139679" type="taxi"/>
 <trip depart="0" from="-986106633#1" id="t236" to="6935800#1" type="taxi"/>
 <trip depart="0" from="5137912" id="t235" to="24423403#2" type="taxi"/>
 <trip depart="0" from="34178666" id="t234" to="314252689" type="taxi"/>
 <trip depart="0" from="-122529102#4" id="t233" to="10357193" type="taxi"/>
 <trip depart="0" from="30692829" id="t232" to="-61972001" type="taxi"/>
 <trip depart="0" from="-22604699#1" id="t231" to="-24429415" type="taxi"/>
 <trip depart="0" from="-8102545" id="t230" to="10357494" type="taxi"/>
 <trip depart="0" from="-797006272" id="t229" to="-75612391#0" type="taxi"/>
 <trip depart="0" from="33826298" id="t228" to="4273625" type="taxi"/>
 <trip depart="0" from="-122529094#6" id="t227" to="-4238028#0" type="taxi"/>
 <trip depart="0" from="-61566225#0" id="t226" to="142497098" type="taxi"/>
 <trip depart="0" from="-24405231#1" id="t225" to="35028305" type="taxi"/>
 <trip depart="0" from="-61367434" id="t224" to="-5094345#0" type="taxi"/>
 <trip depart="0" from="-22604699#1" id="t223" to="-328253309#0" type="taxi"/>
 <trip depart="0" from="-84018033" id="t222" to="-42557001#0" type="taxi"/>
 <trip depart="0" from="26369585" id="t221" to="138669849#0" type="taxi"/>
 <trip depart="0" from="-122529096#3" id="t220" to="-10420511" type="taxi"/>
 <trip depart="0" from="142497097" id="t219" to="-864640789" type="taxi"/>
 <trip depart="0" from="169313833#0" id="t218" to="-839402625" type="taxi"/>
 <trip depart="0" from="-111720721" id="t217" to="39162601" type="taxi"/>
 <trip depart="0" from="4220452#0" id="t216" to="4238027" type="taxi"/>
 <trip depart="0" from="116049443#1" id="t215" to="-98158886#0" type="taxi"/>
 <trip depart="0" from="-84744384#0" id="t214" to="234540368" type="taxi"/>
 <trip depart="0" from="-30471449" id="t213" to="44680915" type="taxi"/>
 <trip depart="0" from="-96809693#0" id="t212" to="4237991" type="taxi"/>
 <trip depart="0" from="-62071809#0" id="t211" to="35607776" type="taxi"/>
 <trip depart="0" from="5374990" id="t210" to="63134322#1" type="taxi"/>
 <trip depart="0" from="61566225#1" id="t209" to="77606145" type="taxi"/>
 <trip depart="0" from="609759375" id="t208" to="-316340794#0" type="taxi"/>
 <trip depart="0" from="-84639229#0" id="t207" to="108336183#2" type="taxi"/>
 <trip depart="0" from="5095213" id="t206" to="117590606" type="taxi"/>
 <trip depart="0" from="328836208" id="t205" to="29508078" type="taxi"/>
 <trip depart="0" from="70431937" id="t204" to="-62070348" type="taxi"/>
 <trip depart="0" from="321098632#1" id="t203" to="-4353778#3" type="taxi"/>
 <trip depart="0" from="349902606#1" id="t202" to="70431937" type="taxi"/>
 <trip depart="0" from="462046218" id="t201" to="233171830" type="taxi"/>
 <trip depart="0" from="-26085515#3" id="t200" to="10558947" type="taxi"/>
 <trip depart="0" from="62162662" id="t199" to="-4238028#0" type="taxi"/>
 <trip depart="0" from="-96934606" id="t198" to="-62057782" type="taxi"/>
 <trip depart="0" from="-4238018#0" id="t197" to="886452845" type="taxi"/>
 <trip depart="0" from="-4233643" id="t196" to="5235057" type="taxi"/>
 <trip depart="0" from="-15242128#1" id="t195" to="61279836" type="taxi"/>
 <trip depart="0" from="5208422" id="t194" to="-61279845" type="taxi"/>
 <trip depart="0" from="-26085515#0" id="t193" to="-579053759" type="taxi"/>
 <trip depart="0" from="62057889" id="t192" to="-301127378" type="taxi"/>
 <trip depart="0" from="31713668" id="t191" to="283762344" type="taxi"/>
 <trip depart="0" from="4238006#0" id="t190" to="8102482" type="taxi"/>
 <trip depart="0" from="-61367454#0" id="t189" to="-4485415" type="taxi"/>
 <trip depart="0" from="-117099151" id="t188" to="117099159#2" type="taxi"/>
 <trip depart="0" from="138350778#1" id="t187" to="79258885" type="taxi"/>
 <trip depart="0" from="212694591" id="t186" to="8102841" type="taxi"/>
 <trip depart="0" from="208585109#1" id="t185" to="-367011708" type="taxi"/>
 <trip depart="0" from="30529050#1" id="t184" to="35062429#4" type="taxi"/>
 <trip depart="0" from="-34777320" id="t183" to="118864079#3" type="taxi"/>
 <trip depart="0" from="121411749#0" id="t182" to="-20045844#0" type="taxi"/>
 <trip depart="0" from="-8102548" id="t181" to="-122529094#5" type="taxi"/>
 <trip depart="0" from="-14994763" id="t180" to="-117099151" type="taxi"/>
 <trip depart="0" from="-5067351#2" id="t179" to="26003360#1" type="taxi"/>
 <trip depart="0" from="5234274" id="t178" to="-6926949#1" type="taxi"/>
 <trip depart="0" from="-147633302#1" id="t177" to="113586411" type="taxi"/>
 <trip depart="0" from="-127207622" id="t176" to="42743947" type="taxi"/>
 <trip depart="0" from="-6926949#1" id="t175" to="-117589022#3" type="taxi"/>
 <trip depart="0" from="-153716505#1" id="t174" to="-557399294" type="taxi"/>
 <trip depart="0" from="-80497803#0" id="t173" to="846117752" type="taxi"/>
 <trip depart="0" from="142497097" id="t172" to="-28656717" type="taxi"/>
 <trip depart="0" from="25587246#1" id="t171" to="35062429#4" type="taxi"/>
 <trip depart="0" from="-94124135" id="t170" to="10508974#0" type="taxi"/>
 <trip depart="0" from="-5095178#0" id="t169" to="-26085515#0" type="taxi"/>
 <trip depart="0" from="-10372364#0" id="t168" to="26127182#3" type="taxi"/>
 <trip depart="0" from="-371261956" id="t167" to="-32016029#2" type="taxi"/>
 <trip depart="0" from="117590608" id="t166" to="-4232328" type="taxi"/>
 <trip depart="0" from="-22982192#0" id="t165" to="5234969" type="taxi"/>
 <trip depart="0" from="-96556756" id="t164" to="122529104#1" type="taxi"/>
 <trip depart="0" from="-370016264#0" id="t163" to="122529102#4" type="taxi"/>
 <trip depart="0" from="93672775" id="t162" to="-5067814" type="taxi"/>
 <trip depart="0" from="-333144415" id="t161" to="39878758" type="taxi"/>
 <trip depart="0" from="30786474" id="t160" to="206350041" type="taxi"/>
 <trip depart="0" from="24429380-AddedOffRampEdge" id="t159" to="-205258664#0" type="taxi"/>
 <trip depart="0" from="-5137908#0" id="t158" to="30261802" type="taxi"/>
 <trip depart="0" from="26040294#1" id="t157" to="846117750" type="taxi"/>
 <trip depart="0" from="29690378" id="t156" to="-136721679#0" type="taxi"/>
 <trip depart="0" from="-5234280#0" id="t155" to="-117589022#0" type="taxi"/>
 <trip depart="0" from="-333156359#0" id="t154" to="-57726373#0" type="taxi"/>
 <trip depart="0" from="38902326" id="t153" to="5137881" type="taxi"/>
 <trip depart="0" from="-117623505" id="t152" to="-83701518#0" type="taxi"/>
 <trip depart="0" from="77606148#1" id="t151" to="10426021#1" type="taxi"/>
 <trip depart="0" from="30528970" id="t150" to="83186565" type="taxi"/>
 <trip depart="0" from="-76179098#0" id="t149" to="95916457" type="taxi"/>
 <trip depart="0" from="-84018022#0" id="t148" to="34294088#0" type="taxi"/>
 <trip depart="0" from="62061876" id="t147" to="-331442180" type="taxi"/>
 <trip depart="0" from="-122529094#5" id="t146" to="5095213" type="taxi"/>
 <trip depart="0" from="-117654819#0" id="t145" to="-211042302#0" type="taxi"/>
 <trip depart="0" from="10516847" id="t144" to="76236377" type="taxi"/>
 <trip depart="0" from="-35155912" id="t143" to="217696286#1" type="taxi"/>
 <trip depart="0" from="624417041" id="t142" to="-333156359#1" type="taxi"/>
 <trip depart="0" from="234088653#2" id="t141" to="83506741" type="taxi"/>
 <trip depart="0" from="-61367449#0" id="t140" to="349902606#1" type="taxi"/>
 <trip depart="0" from="29508011#0" id="t139" to="25587246#1" type="taxi"/>
 <trip depart="0" from="223401058#0" id="t138" to="37076910" type="taxi"/>
 <trip depart="0" from="-297159795#1" id="t137" to="45842721" type="taxi"/>
 <trip depart="0" from="137996244#1" id="t136" to="-122529114#1" type="taxi"/>
 <trip depart="0" from="35061798" id="t135" to="10516847" type="taxi"/>
 <trip depart="0" from="-211206248" id="t134" to="125689487#3" type="taxi"/>
 <trip depart="0" from="117057369" id="t133" to="-95952109" type="taxi"/>
 <trip depart="0" from="-258892124#0" id="t132" to="40537228" type="taxi"/>
 <trip depart="0" from="130735705" id="t131" to="-14573382#2" type="taxi"/>
 <trip depart="0" from="61367449#1" id="t130" to="-137388193" type="taxi"/>
 <trip depart="0" from="26378883" id="t129" to="335559222" type="taxi"/>
 <trip depart="0" from="25361892#1" id="t128" to="-118155452#1" type="taxi"/>
 <trip depart="0" from="-76074276" id="t127" to="25976329#1" type="taxi"/>
 <trip depart="0" from="-25587075" id="t126" to="-59603306" type="taxi"/>
 <trip depart="0" from="-30141087" id="t125" to="846117750" type="taxi"/>
 <trip depart="0" from="-126905628#0" id="t124" to="-190721768#0" type="taxi"/>
 <trip depart="0" from="-211199290#0" id="t123" to="-352568703" type="taxi"/>
 <trip depart="0" from="-212694592" id="t122" to="94124202" type="taxi"/>
 <trip depart="0" from="116049444#1" id="t121" to="26348751#0" type="taxi"/>
 <trip depart="0" from="72728808" id="t120" to="-116049444#0" type="taxi"/>
 <trip depart="0" from="195898177" id="t119" to="367315276" type="taxi"/>
 <trip depart="0" from="80445087#1" id="t118" to="-61102971#0" type="taxi"/>
 <trip depart="0" from="80505819" id="t117" to="4486013" type="taxi"/>
 <trip depart="0" from="25361892#2" id="t116" to="-324741543" type="taxi"/>
 <trip depart="0" from="94124202" id="t115" to="47089824" type="taxi"/>
 <trip depart="0" from="-5234757#0" id="t114" to="26421668#0" type="taxi"/>
 <trip depart="0" from="-24405231#0" id="t113" to="116049438" type="taxi"/>
 <trip depart="0" from="-61565968" id="t112" to="78343358#1" type="taxi"/>
 <trip depart="0" from="10508974#0" id="t111" to="117626823#0" type="taxi"/>
 <trip depart="0" from="26378883" id="t110" to="61984349#1" type="taxi"/>
 <trip depart="0" from="367315276" id="t109" to="-26040294#4" type="taxi"/>
 <trip depart="0" from="-83510232#0" id="t108" to="-4485423" type="taxi"/>
 <trip depart="0" from="87397777" id="t107" to="4226192#1" type="taxi"/>
 <trip depart="0" from="-117649850#1" id="t106" to="-5065866#1" type="taxi"/>
 <trip depart="0" from="285150553" id="t105" to="-14573382#2" type="taxi"/>
 <trip depart="0" from="-29688693" id="t104" to="10621055" type="taxi"/>
 <trip depart="0" from="60752388" id="t103" to="77489204" type="taxi"/>
 <trip depart="0" from="24423403#5" id="t102" to="28918381#1" type="taxi"/>
 <trip depart="0" from="82259086" id="t101" to="51667065" type="taxi"/>
 <trip depart="0" from="-117590612" id="t100" to="28539749#0" type="taxi"/>
 <trip depart="0" from="-626942404#1" id="t99" to="95916459" type="taxi"/>
 <trip depart="0" from="24436437" id="t98" to="98158886#0" type="taxi"/>
 <trip depart="0" from="-188685953" id="t97" to="25361892#4" type="taxi"/>
 <trip depart="0" from="100018562" id="t96" to="-4229440" type="taxi"/>
 <trip depart="0" from="5094265" id="t95" to="-74011129#0" type="taxi"/>
 <trip depart="0" from="-4233644#0" id="t94" to="61543316#0" type="taxi"/>
 <trip depart="0" from="30291034" id="t93" to="118155452#1" type="taxi"/>
 <trip depart="0" from="-20045844#0" id="t92" to="-98158886#0" type="taxi"/>
 <trip depart="0" from="-28539750" id="t91" to="35772871" type="taxi"/>
 <trip depart="0" from="28717819#0" id="t90" to="28738382#0" type="taxi"/>
 <trip depart="0" from="-5067354#1" id="t89" to="-26165754#1" type="taxi"/>
 <trip depart="0" from="212690611#1" id="t88" to="24429400#1" type="taxi"/>
 <trip depart="0" from="-24466641" id="t87" to="-25894166#0" type="taxi"/>
 <trip depart="0" from="-33826299" id="t86" to="-29688693" type="taxi"/>
 <trip depart="0" from="864640791" id="t85" to="-4229445" type="taxi"/>
 <trip depart="0" from="28717819#0" id="t84" to="707213207#0" type="taxi"/>
 <trip depart="0" from="30529010#1" id="t83" to="-5067351#1" type="taxi"/>
 <trip depart="0" from="25618827" id="t82" to="-233171092" type="taxi"/>
 <trip depart="0" from="10373960" id="t81" to="-5205353#2" type="taxi"/>
 <trip depart="0" from="980528933#1" id="t80" to="-332253063#1" type="taxi"/>
 <trip depart="0" from="39125215#1" id="t79" to="130637088" type="taxi"/>
 <trip depart="0" from="-61984349#0" id="t78" to="79884615" type="taxi"/>
 <trip depart="0" from="-100073149" id="t77" to="10508974#0" type="taxi"/>
 <trip depart="0" from="118155452#1" id="t76" to="-26040294#4" type="taxi"/>
 <trip depart="0" from="-127607363" id="t75" to="-364031091" type="taxi"/>
 <trip depart="0" from="39129127" id="t74" to="56253838" type="taxi"/>
 <trip depart="0" from="-32016029#2" id="t73" to="364031091" type="taxi"/>
 <trip depart="0" from="4250372" id="t72" to="-15242129#0" type="taxi"/>
 <trip depart="0" from="-10372461" id="t71" to="30326559" type="taxi"/>
 <trip depart="0" from="-96596621" id="t70" to="51530168" type="taxi"/>
 <trip depart="0" from="-5067351#2" id="t69" to="-156515879" type="taxi"/>
 <trip depart="0" from="61984349#1" id="t68" to="-96809683#1" type="taxi"/>
 <trip depart="0" from="-6927021" id="t67" to="4273629" type="taxi"/>
 <trip depart="0" from="-27404368#0" id="t66" to="10363555" type="taxi"/>
 <trip depart="0" from="-118864079#4" id="t65" to="20046011#1" type="taxi"/>
 <trip depart="0" from="5067769" id="t64" to="-122529101" type="taxi"/>
 <trip depart="0" from="211697677" id="t63" to="-10426053#3" type="taxi"/>
 <trip depart="0" from="26379010#0" id="t62" to="138666583" type="taxi"/>
 <trip depart="0" from="77489204" id="t61" to="-122529104#0" type="taxi"/>
 <trip depart="0" from="94107486" id="t60" to="4952787" type="taxi"/>
 <trip depart="0" from="5067357#1" id="t59" to="95799445" type="taxi"/>
 <trip depart="0" from="39979149" id="t58" to="310738357" type="taxi"/>
 <trip depart="0" from="-313403373" id="t57" to="148251974" type="taxi"/>
 <trip depart="0" from="-140702357" id="t56" to="-234955764" type="taxi"/>
 <trip depart="0" from="1030046252#0" id="t55" to="-83187094" type="taxi"/>
 <trip depart="0" from="-5095213" id="t54" to="34036603" type="taxi"/>
 <trip depart="0" from="24423403#1" id="t53" to="-24049140#2" type="taxi"/>
 <trip depart="0" from="-5234573#0" id="t52" to="206355020" type="taxi"/>
 <trip depart="0" from="-10377153#1" id="t51" to="-295993399" type="taxi"/>
 <trip depart="0" from="372445340#1" id="t50" to="34495949" type="taxi"/>
 <trip depart="0" from="-14573382#0" id="t49" to="-138350780#1" type="taxi"/>
 <trip depart="0" from="-76179098#0" id="t48" to="24031456#4" type="taxi"/>
 <trip depart="0" from="-156117460" id="t47" to="122529102#0" type="taxi"/>
 <trip depart="0" from="-50044720#1" id="t46" to="10559201" type="taxi"/>
 <trip depart="0" from="-626942404#0" id="t45" to="62109012#2" type="taxi"/>
 <trip depart="0" from="-100018566#1" id="t44" to="-324741543" type="taxi"/>
 <trip depart="0" from="-189797586" id="t43" to="210282070" type="taxi"/>
 <trip depart="0" from="4273621" id="t42" to="-117631282" type="taxi"/>
 <trip depart="0" from="117099156#1" id="t41" to="-29690378" type="taxi"/>
 <trip depart="0" from="-117654826" id="t40" to="118155452#1" type="taxi"/>
 <trip depart="0" from="84639229#1" id="t39" to="32461045#3" type="taxi"/>
 <trip depart="0" from="-130735705" id="t38" to="117649850#0" type="taxi"/>
 <trip depart="0" from="-85583085" id="t37" to="-102278339" type="taxi"/>
 <trip depart="0" from="-21052315#0" id="t36" to="-980528922" type="taxi"/>
 <trip depart="0" from="5065859" id="t35" to="39448335" type="taxi"/>
 <trip depart="0" from="35355373" id="t34" to="1052613455" type="taxi"/>
 <trip depart="0" from="-52673136" id="t33" to="-364514363" type="taxi"/>
 <trip depart="0" from="118155452#1" id="t32" to="28717819#0" type="taxi"/>
 <trip depart="0" from="-140497659#1" id="t31" to="116350100" type="taxi"/>
 <trip depart="0" from="-212690611#1" id="t30" to="-10405419" type="taxi"/>
 <trip depart="0" from="4226192#1" id="t29" to="-797006272" type="taxi"/>
 <trip depart="0" from="-62116513" id="t28" to="6929234#1" type="taxi"/>
 <trip depart="0" from="10363546" id="t27" to="-10500974" type="taxi"/>
 <trip depart="0" from="26378934" id="t26" to="-162352616" type="taxi"/>
 <trip depart="0" from="-117590613" id="t25" to="-59985011" type="taxi"/>
 <trip depart="0" from="-5067357#1" id="t24" to="-84639207" type="taxi"/>
 <trip depart="0" from="-16345605#1" id="t23" to="28656717" type="taxi"/>
 <trip depart="0" from="-5137917" id="t22" to="6935800#0" type="taxi"/>
 <trip depart="0" from="10426053#3" id="t21" to="5065866#1" type="taxi"/>
 <trip depart="0" from="285017097" id="t20" to="95916457" type="taxi"/>
 <trip depart="0" from="-258892124#0" id="t19" to="-156515879" type="taxi"/>
 <trip depart="0" from="-122529109" id="t18" to="45842721" type="taxi"/>
 <trip depart="0" from="-26012815#0" id="t17" to="60057956" type="taxi"/>
 <trip depart="0" from="-607687261#0" id="t16" to="-797006272" type="taxi"/>
 <trip depart="0" from="5058070" id="t15" to="137294685" type="taxi"/>
 <trip depart="0" from="28918381#1" id="t14" to="122529102#0" type="taxi"/>
 <trip depart="0" from="-125351162#0" id="t13" to="-10501671" type="taxi"/>
 <trip depart="0" from="122529096#4" id="t12" to="-30141087" type="taxi"/>
 <trip depart="0" from="-83508584" id="t11" to="117626823#0" type="taxi"/>
 <trip depart="0" from="24426767#0" id="t10" to="5094345#1" type="taxi"/>
 <trip depart="0" from="37972272" id="t9" to="-188890214" type="taxi"/>
 <trip depart="0" from="5234741" id="t8" to="-211199290#0" type="taxi"/>
 <trip depart="0" from="-1075684663#0" id="t7" to="286243205" type="taxi"/>
 <trip depart="0" from="-97097111#0" id="t6" to="10377170" type="taxi"/>
 <trip depart="0" from="5067786#1" id="t5" to="-82259062#0" type="taxi"/>
 <trip depart="0" from="8394862" id="t4" to="96559143" type="taxi"/>
 <trip depart="0" from="-38281640#1" id="t3" to="34734674#1" type="taxi"/>
 <trip depart="0" from="-310738357" id="t2" to="-61491729" type="taxi"/>
 <trip depart="0" from="95799445" id="t1" to="79691034" type="taxi"/>
 <trip depart="0" from="61281858#1" id="t0" to="-370016266#0" type="taxi"/>
 <trip depart="1.0" departLane="best" departSpeed="max" from="-30140997" id="rs_c000_i000_9" to="34776006"/>
 <person depart="4.0" id="p0">
  <ride from="-26037066" lines="taxi" parkingArea="pa58423646" to="58423646"/>
 </person>
 <trip depart="5.0" departLane="best" departSpeed="max" from="116049443#1" id="rs_c000_i000_59" to="26187755#0"/>
 <trip depart="6.0" departLane="best" departSpeed="max" from="96596615#1" id="rs_c000_i000_72" to="41882139"/>
 <person depart="8.0" id="p1">
  <ride from="-52673136" lines="taxi" parkingArea="pa24429380-AddedOffRampEdge" to="24429380-AddedOffRampEdge"/>
 </person>
 <person depart="8.0" id="p2">
  <ride from="-62116257" lines="taxi" parkingArea="pa16820737#0" to="16820737#0"/>
 </person>
 <trip depart="14.0" departLane="best" departSpeed="max" from="222307221#0" id="rs_c000_i000_151" to="58423646"/>
 <trip depart="14.0" departLane="best" departSpeed="max" from="125828734" id="rs_c000_i001_15" to="17244796"/>
 <trip depart="16.0" departLane="best" departSpeed="max" from="-4233519" id="rs_c001_i000_25" to="72728808"/>
 <trip depart="16.0" departLane="best" departSpeed="max" from="4233684" id="rs_c000_i001_20" to="102332991"/>
 <person depart="17.0" id="p3">
  <ride from="-71284395" lines="taxi" parkingArea="pa25980639" to="25980639"/>
 </person>
 <trip depart="17.0" departLane="best" departSpeed="max" from="35722785#1" id="rs_c000_i000_202" to="16820737#0"/>
 <person depart="19.0" id="p4">
  <ride from="10516147#0" lines="taxi" parkingArea="pa60752388" to="60752388"/>
 </person>
 <person depart="19.0" id="p5">
  <ride from="-94107509" lines="taxi" parkingArea="pa16820737#0" to="16820737#0"/>
 </person>
 <trip depart="24.0" departLane="best" departSpeed="max" from="219528064" id="rs_c001_i001_7" to="72728806"/>
 <trip depart="25.0" departLane="best" departSpeed="max" from="-122529110" id="rs_c000_i000_296" to="26187755#0"/>
 <trip depart="25.0" departLane="best" departSpeed="max" from="-125351135" id="rs_c000_i000_299" to="26187755#0"/>
 <trip depart="25.0" departLane="best" departSpeed="max" from="56253839" id="rs_c000_i000_303" to="25980639"/>
 <person depart="29.0" id="p6">
  <ride from="4246321" lines="taxi" parkingArea="pa530282943" to="530282943"/>
 </person>
 <trip depart="32.0" departLane="best" departSpeed="max" from="-129785060" id="rs_c000_i000_376" to="25980639"/>
 <trip depart="33.0" departLane="best" departSpeed="max" from="290255300" id="rs_c000_i000_384" to="58423646"/>
 <person depart="34.0" id="p7">
  <ride from="-8135855" lines="taxi" parkingArea="pa-886306666" to="-886306666"/>
 </person>
 <trip depart="34.0" departLane="best" departSpeed="max" from="1080298604" id="rs_c001_i000_68" to="72728808"/>
 <trip depart="35.0" departLane="best" departSpeed="max" from="-35155912" id="rs_c001_i000_69" to="35061798"/>
 <trip depart="35.0" departLane="best" departSpeed="max" from="35605874#2" id="rs_c000_i000_411" to="16820737#0"/>
 <person depart="36.0" id="p8">
  <ride from="94124202" lines="taxi" parkingArea="pa96718342" to="96718342"/>
 </person>
 <trip depart="37.0" departLane="best" departSpeed="max" from="-4238018#0" id="rs_c001_i000_78" to="102332987#0"/>
 <trip depart="38.0" departLane="best" departSpeed="max" from="-5067354#1" id="rs_c000_i000_437" to="34760663"/>
 <trip depart="40.0" departLane="best" departSpeed="max" from="-84639229#0" id="rs_c000_i000_455" to="39139679"/>
 <trip depart="41.0" departLane="best" departSpeed="max" from="4229427#1" id="rs_c001_i000_84" to="58768886#0"/>
 <trip depart="41.0" departLane="best" departSpeed="max" from="-579053759" id="rs_c000_i000_476" to="206350041"/>
 <person depart="42.0" id="p9">
  <ride from="-72728809" lines="taxi" parkingArea="pa607800580" to="607800580"/>
 </person>
 <trip depart="43.0" departLane="best" departSpeed="max" from="5137912" id="rs_c000_i002_6" to="34760663"/>
 <trip depart="45.0" departLane="best" departSpeed="max" from="-116049444#0" id="rs_c000_i000_504" to="26187755#0"/>
 <person depart="45.0" id="p10">
  <ride from="-24423403#10" lines="taxi" parkingArea="pa144246396#1" to="144246396#1"/>
 </person>
 <trip depart="48.0" departLane="best" departSpeed="max" from="-116049439#1" id="rs_c001_i000_104" to="26187757#1"/>
 <trip depart="51.0" departLane="best" departSpeed="max" from="695626572" id="rs_c000_i000_578" to="58422788#0-AddedOffRampEdge"/>
 <person depart="51.0" id="p11">
  <ride from="-61997814#0" lines="taxi" parkingArea="pa16820737#0" to="16820737#0"/>
 </person>
 <person depart="52.0" id="p12">
  <ride from="-118869284#1" lines="taxi" parkingArea="pa144246396#1" to="144246396#1"/>
 </person>
 <trip depart="53.0" departLane="best" departSpeed="max" from="30326559" id="rs_c000_i000_612" to="34760663"/>
 <trip depart="55.0" departLane="best" departSpeed="max" from="-61566225#0" id="rs_c000_i000_653" to="-94124135"/>
 <person depart="56.0" id="p13">
  <ride from="4273624" lines="taxi" parkingArea="pa582286859#0" to="582286859#0"/>
 </person>
 <trip depart="56.0" departLane="best" departSpeed="max" from="190721768#1" id="rs_c000_i000_665" to="34760663"/>
 <person depart="57.0" id="p14">
  <ride from="61496433" lines="taxi" parkingArea="pa582286859#0" to="582286859#0"/>
 </person>
 <person depart="57.0" id="p15">
  <ride from="-290255303#2" lines="taxi" parkingArea="pa26187757#1" to="26187757#1"/>
 </person>
 <trip depart="57.0" departLane="best" departSpeed="max" from="462046218" id="rs_c000_i000_673" to="38455846"/>
 <person depart="58.0" id="p16">
  <ride from="-118155456#2" lines="taxi" parkingArea="pa26187757#1" to="26187757#1"/>
 </person>
 <trip depart="60.0" departLane="best" departSpeed="max" from="8597240" id="rs_c001_i001_17" to="72728806"/>
 <trip depart="61.0" departLane="best" departSpeed="max" from="-212690606" id="rs_c000_i001_86" to="60752388"/>
 <trip depart="61.0" departLane="best" departSpeed="max" from="-100018567" id="rs_c001_i000_132" to="-94124135"/>
 <trip depart="63.0" departLane="best" departSpeed="max" from="61669586" id="rs_c000_i002_10" to="60752388"/>
 <person depart="63.0" id="p17">
  <ride from="-5096970" lines="taxi" parkingArea="pa138914231#0" to="138914231#0"/>
 </person>
 <trip depart="64.0" departLane="best" departSpeed="max" from="-4680630" id="rs_c001_i000_143" to="61102971#1"/>
 <trip depart="65.0" departLane="best" departSpeed="max" from="-4872089" id="rs_c000_i000_763" to="34760663"/>
 <trip depart="65.0" departLane="best" departSpeed="max" from="-203752765" id="rs_c001_i000_145" to="138914231#0"/>
 <person depart="67.0" id="p18">
  <ride from="-84017983" lines="taxi" parkingArea="pa35062429#0" to="35062429#0"/>
 </person>
 <person depart="69.0" id="p19">
  <ride from="364419352#0" lines="taxi" parkingArea="pa133114633" to="133114633"/>
 </person>
 <person depart="70.0" id="p20">
  <ride from="-32016029#2" lines="taxi" parkingArea="pa34760663" to="34760663"/>
 </person>
 <trip depart="73.0" departLane="best" departSpeed="max" from="71284390#0" id="rs_c000_i001_104" to="206350041"/>
 <person depart="73.0" id="p21">
  <ride from="-10516147#2" lines="taxi" parkingArea="pa-124537762" to="-124537762"/>
 </person>
 <trip depart="73.0" departLane="best" departSpeed="max" from="333338273" id="rs_c000_i000_856" to="116350100"/>
 <trip depart="73.0" departLane="best" departSpeed="max" from="-10405223#0" id="rs_c001_i000_160" to="530282943"/>
 <person depart="74.0" id="p22">
  <ride from="-95100609" lines="taxi" parkingArea="pa58423646" to="58423646"/>
 </person>
 <person depart="74.0" id="p23">
  <ride from="24487041" lines="taxi" parkingArea="pa-330920155" to="-330920155"/>
 </person>
 <person depart="74.0" id="p24">
  <ride from="100016823#2" lines="taxi" parkingArea="pa30707088#0" to="30707088#0"/>
 </person>
 <trip depart="75.0" departLane="best" departSpeed="max" from="-328253309#0" id="rs_c000_i001_110" to="58422788#0-AddedOffRampEdge"/>
 <person depart="75.0" id="p25">
  <ride from="-10436546" lines="taxi" parkingArea="pa35062429#0" to="35062429#0"/>
 </person>
 <trip depart="76.0" departLane="best" departSpeed="max" from="26040294#1" id="rs_c000_i000_880" to="58423646"/>
 <person depart="76.0" id="p26">
  <ride from="-10425858" lines="taxi" parkingArea="pa139124541#0" to="139124541#0"/>
 </person>
 <trip depart="76.0" departLane="best" departSpeed="max" from="117099159#2" id="rs_c000_i000_885" to="58423646"/>
 <person depart="78.0" id="p27">
  <ride from="87397777" lines="taxi" parkingArea="pa17244796" to="17244796"/>
 </person>
 <person depart="79.0" id="p28">
  <ride from="-63322102#1" lines="taxi" parkingArea="pa25980639" to="25980639"/>
 </person>
 <trip depart="82.0" departLane="best" departSpeed="max" from="-5065866#1" id="rs_c000_i000_941" to="34587265#0"/>
 <person depart="82.0" id="p29">
  <ride from="-136721672" lines="taxi" parkingArea="pa26187757#1" to="26187757#1"/>
 </person>
 <trip depart="84.0" departLane="best" departSpeed="max" from="-23197959" id="rs_c000_i000_966" to="116350100"/>
 <trip depart="85.0" departLane="best" departSpeed="max" from="-188890214" id="rs_c000_i000_971" to="17244796"/>
 <person depart="86.0" id="p30">
  <ride from="4353778#0" lines="taxi" parkingArea="pa58423646" to="58423646"/>
 </person>
 <person depart="89.0" id="p31">
  <ride from="358697049#1" lines="taxi" parkingArea="pa133114633" to="133114633"/>
 </person>
 <person depart="90.0" id="p32">
  <ride from="51340803#0" lines="taxi" parkingArea="pa35062429#0" to="35062429#0"/>
 </person>
 <trip depart="91.0" departLane="best" departSpeed="max" from="-85562446#0" id="rs_c001_i000_197" to="39139679"/>
 <trip depart="92.0" departLane="best" departSpeed="max" from="-26127182#1" id="rs_c000_i000_1060" to="26187755#0"/>
 <trip depart="93.0" departLane="best" departSpeed="max" from="4238091#1" id="rs_c000_i000_586" to="102282710"/>
 <trip depart="93.0" departLane="best" departSpeed="max" from="24423403#5" id="rs_c000_i000_1064" to="144246396#1"/>
 <person depart="93.0" id="p33">
  <ride from="4643592" lines="taxi" parkingArea="pa17244796" to="17244796"/>
 </person>
 <trip depart="97.0" departLane="best" departSpeed="max" from="-24423403#7" id="rs_c000_i000_1112" to="144246396#1"/>
 <person depart="97.0" id="p34">
  <ride from="-30471057#0" lines="taxi" parkingArea="pa102332987#0" to="102332987#0"/>
 </person>
 <person depart="98.0" id="p35">
  <ride from="-212694593#3" lines="taxi" parkingArea="pa26187755#0" to="26187755#0"/>
 </person>
 <trip depart="98.0" departLane="best" departSpeed="max" from="364419352#0" id="rs_c000_i001_141" to="102332987#0"/>
 <trip depart="100.0" departLane="best" departSpeed="max" from="84017451#0" id="rs_c000_i000_1143" to="-330920155"/>
 <trip depart="100.0" departLane="best" departSpeed="max" from="-328813517" id="rs_c001_i000_213" to="41882139"/>
 <person depart="101.0" id="p36">