<?xml version="1.0" encoding="UTF-8"?>

<!-- generated on 2023-05-19 16:24:33 by Eclipse SUMO netconvert Version 1.17.0
<configuration xmlns:xsi="http://www.w3.org/2001/XMLSchema-instance" xsi:noNamespaceSchemaLocation="http://sumo.dlr.de/xsd/netconvertConfiguration.xsd">

    <input>
        <sumo-net-file value="kamppi.net.xml"/>
    </input>

    <output>
        <output.street-names value="true"/>
    </output>

    <processing>
        <geometry.min-radius.fix.railways value="false"/>
        <geometry.max-grade.fix value="false"/>
        <offset.disable-normalization value="true"/>
        <lefthand value="0"/>
    </processing>

    <edge_removal>
        <keep-edges.in-geo-boundary value="24.917596,60.162055 24.943919,60.170101 24.961168,60.159137 24.916738,60.158553 24.917987,60.161930"/>
    </edge_removal>

    <junctions>
        <no-turnarounds value="true"/>
        <junctions.corner-detail value="5"/>
        <junctions.limit-turn-speed value="5.50"/>
        <rectangular-lane-cut value="0"/>
    </junctions>

    <pedestrian>
        <walkingareas value="0"/>
    </pedestrian>

</configuration>
-->

<net version="1.16" junctionCornerDetail="5" limitTurnSpeed="5.50" xmlns:xsi="http://www.w3.org/2001/XMLSchema-instance" xsi:noNamespaceSchemaLocation="http://sumo.dlr.de/xsd/net_file.xsd">

    <location netOffset="-248979.65,-6603560.62" convBoundary="135647.54,67441.53,137049.41,68555.09" origBoundary="22.487275,59.564699,26.767787,61.363497" projParameter="+proj=utm +zone=35 +ellps=WGS84 +datum=WGS84 +units=m +no_defs"/>

    <type id="highway.bridleway" priority="1" numLanes="1" speed="2.78" allow="pedestrian" oneway="1" width="2.00"/>
    <type id="highway.bus_guideway" priority="1" numLanes="1" speed="27.78" allow="bus" oneway="1"/>
    <type id="highway.cycleway" priority="1" numLanes="1" speed="5.56" allow="bicycle" oneway="0" width="1.00"/>
    <type id="highway.footway" priority="1" numLanes="1" speed="2.78" allow="pedestrian" oneway="1" width="2.00"/>
    <type id="highway.ford" priority="1" numLanes="1" speed="2.78" allow="army" oneway="0"/>
    <type id="highway.living_street" priority="2" numLanes="1" speed="2.78" disallow="tram rail_urban rail rail_electric rail_fast ship" oneway="0"/>
    <type id="highway.motorway" priority="14" numLanes="2" speed="39.44" allow="private emergency authority army vip passenger hov taxi bus coach delivery truck trailer motorcycle evehicle custom1 custom2" oneway="1"/>
    <type id="highway.motorway_link" priority="9" numLanes="1" speed="22.22" allow="private emergency authority army vip passenger hov taxi bus coach delivery truck trailer motorcycle evehicle custom1 custom2" oneway="1"/>
    <type id="highway.path" priority="1" numLanes="1" speed="5.56" allow="pedestrian bicycle" oneway="0" width="2.00"/>
    <type id="highway.pedestrian" priority="1" numLanes="1" speed="2.78" allow="pedestrian" oneway="1" width="2.00"/>
    <type id="highway.primary" priority="12" numLanes="2" speed="27.78" disallow="tram rail_urban rail rail_electric rail_fast ship" oneway="0"/>
    <type id="highway.primary_link" priority="7" numLanes="1" speed="22.22" disallow="tram rail_urban rail rail_electric rail_fast ship" oneway="0"/>
    <type id="highway.raceway" priority="15" numLanes="2" speed="83.33" allow="vip" oneway="0"/>
    <type id="highway.residential" priority="3" numLanes="1" speed="13.89" disallow="tram rail_urban rail rail_electric rail_fast ship" oneway="0"/>
    <type id="highway.secondary" priority="11" numLanes="1" speed="27.78" disallow="tram rail_urban rail rail_electric rail_fast ship" oneway="0"/>
    <type id="highway.secondary_link" priority="6" numLanes="1" speed="22.22" disallow="tram rail_urban rail rail_electric rail_fast ship" oneway="0"/>
    <type id="highway.service" priority="1" numLanes="1" speed="5.56" allow="pedestrian delivery bicycle" oneway="0"/>
    <type id="highway.stairs" priority="1" numLanes="1" speed="1.39" allow="pedestrian" oneway="1" width="2.00"/>
    <type id="highway.step" priority="1" numLanes="1" speed="1.39" allow="pedestrian" oneway="1" width="2.00"/>
    <type id="highway.steps" priority="1" numLanes="1" speed="1.39" allow="pedestrian" oneway="1" width="2.00"/>
    <type id="highway.tertiary" priority="10" numLanes="1" speed="22.22" disallow="tram rail_urban rail rail_electric rail_fast ship" oneway="0"/>
    <type id="highway.tertiary_link" priority="5" numLanes="1" speed="22.22" disallow="tram rail_urban rail rail_electric rail_fast ship" oneway="0"/>
    <type id="highway.track" priority="1" numLanes="1" speed="5.56" allow="pedestrian motorcycle moped bicycle" oneway="0"/>
    <type id="highway.trunk" priority="13" numLanes="2" speed="27.78" disallow="pedestrian bicycle tram rail_urban rail rail_electric rail_fast ship" oneway="0"/>
    <type id="highway.trunk_link" priority="8" numLanes="1" speed="22.22" disallow="pedestrian bicycle tram rail_urban rail rail_electric rail_fast ship" oneway="0"/>
    <type id="highway.unclassified" priority="4" numLanes="1" speed="13.89" disallow="tram rail_urban rail rail_electric rail_fast ship" oneway="0"/>
    <type id="highway.unsurfaced" priority="1" numLanes="1" speed="8.33" disallow="tram rail_urban rail rail_electric rail_fast ship" oneway="0"/>
    <type id="railway.highspeed" priority="21" numLanes="1" speed="69.44" allow="rail_fast" oneway="1"/>
    <type id="railway.light_rail" priority="19" numLanes="1" speed="27.78" allow="rail_urban" oneway="1"/>
    <type id="railway.preserved" priority="16" numLanes="1" speed="27.78" allow="rail" oneway="1"/>
    <type id="railway.rail" priority="20" numLanes="1" speed="44.44" allow="rail" oneway="1"/>
    <type id="railway.subway" priority="18" numLanes="1" speed="27.78" allow="rail_urban" oneway="1"/>
    <type id="railway.tram" priority="17" numLanes="1" speed="13.89" allow="tram" oneway="1"/>

    <edge id=":1005727548_0" function="internal">
        <lane id=":1005727548_0_0" index="0" disallow="tram rail_urban rail rail_electric rail_fast ship" speed="8.33" length="8.15" shape="136064.02,67777.54 136065.15,67775.46 136065.57,67773.85 136065.97,67772.22 136067.04,67770.10"/>
        <lane id=":1005727548_0_1" index="1" disallow="tram rail_urban rail rail_electric rail_fast ship" speed="8.33" length="8.15" shape="136064.02,67777.54 136065.57,67775.72 136066.92,67774.71 136068.24,67773.68 136069.73,67771.82"/>
        <lane id=":1005727548_0_2" index="2" disallow="tram rail_urban rail rail_electric rail_fast ship" speed="8.33" length="8.15" shape="136066.66,67779.35 136068.23,67777.51 136069.58,67776.48 136070.92,67775.43 136072.43,67773.55"/>
    </edge>
    <edge id=":1007980689_0" function="internal">
        <lane id=":1007980689_0_0" index="0" disallow="tram rail_urban rail rail_electric rail_fast ship" speed="8.33" length="4.70" shape="135814.15,67757.47 135813.24,67756.41 135812.60,67755.70 135811.87,67755.08 135810.73,67754.30"/>
    </edge>
    <edge id=":1007980689_1" function="internal">
        <lane id=":1007980689_1_0" index="0" disallow="tram rail_urban rail rail_electric rail_fast ship" speed="6.46" length="17.76" shape="135814.15,67757.47 135810.61,67752.99 135810.29,67751.25 135813.20,67752.25 135819.34,67755.99"/>
    </edge>
    <edge id=":1007980689_2" function="internal">
        <lane id=":1007980689_2_0" index="0" disallow="tram rail_urban rail rail_electric rail_fast ship" speed="8.33" length="8.17" shape="135812.45,67751.60 135819.34,67755.99"/>
    </edge>
    <edge id=":1007980689_3" function="internal">
        <lane id=":1007980689_3_0" index="0" disallow="tram rail_urban rail rail_electric rail_fast ship" speed="3.65" length="4.67" shape="135812.45,67751.60 135813.03,67752.93 135812.94,67753.81 135812.17,67754.27 135810.73,67754.30"/>
    </edge>
    <edge id=":103062861_0" function="internal">
        <lane id=":103062861_0_0" index="0" disallow="tram rail_urban rail rail_electric rail_fast ship" speed="8.33" length="13.90" shape="135781.12,67755.12 135773.99,67767.06"/>
    </edge>
    <edge id=":103062861_1" function="internal">
        <lane id=":103062861_1_0" index="0" disallow="tram rail_urban rail rail_electric rail_fast ship" speed="7.17" length="11.46" shape="135781.12,67755.12 135779.41,67756.90 135777.15,67757.49 135774.34,67756.90 135770.99,67755.14"/>
    </edge>
    <edge id=":103062861_2" function="internal">
        <lane id=":103062861_2_0" index="0" disallow="tram rail_urban rail rail_electric rail_fast ship" speed="3.65" length="4.67" shape="135781.12,67755.12 135779.81,67755.73 135778.92,67755.66 135778.44,67754.90 135778.38,67753.46"/>
    </edge>
    <edge id=":103062861_3" function="internal">
        <lane id=":103062861_3_0" index="0" disallow="tram rail_urban rail rail_electric rail_fast ship" speed="6.58" length="8.91" shape="135771.23,67765.44 135772.11,67763.24 135772.07,67761.24 135771.11,67759.43 135769.22,67757.81"/>
    </edge>
    <edge id=":103062861_4" function="internal">
        <lane id=":103062861_4_0" index="0" disallow="tram rail_urban rail rail_electric rail_fast ship" speed="8.33" length="13.96" shape="135771.23,67765.44 135778.38,67753.46"/>
    </edge>
    <edge id=":103062861_5" function="internal">
        <lane id=":103062861_5_0" index="0" disallow="tram rail_urban rail rail_electric rail_fast ship" speed="3.65" length="4.67" shape="135771.23,67765.44 135772.53,67764.81 135773.42,67764.87 135773.91,67765.62 135773.99,67767.06"/>
    </edge>
    <edge id=":1371750095_0" function="internal">
        <lane id=":1371750095_0_0" index="0" disallow="tram rail_urban rail rail_electric rail_fast ship" speed="6.53" length="9.03" shape="136498.74,68287.51 136497.74,68289.77 136497.70,68291.82 136498.62,68293.64 136500.49,68295.25"/>
    </edge>
    <edge id=":1371750095_1" function="internal">
        <lane id=":1371750095_1_0" index="0" disallow="tram rail_urban rail rail_electric rail_fast ship" speed="8.33" length="11.46" shape="136498.74,68287.51 136492.50,68297.12"/>
    </edge>
    <edge id=":1371750095_2" function="internal">
        <lane id=":1371750095_2_0" index="0" disallow="tram rail_urban rail rail_electric rail_fast ship" speed="7.39" length="12.02" shape="136498.74,68287.51 136496.90,68289.41 136494.52,68290.07 136491.58,68289.52 136488.09,68287.74"/>
    </edge>
    <edge id=":1371750095_3" function="internal">
        <lane id=":1371750095_3_0" index="0" disallow="tram rail_urban rail rail_electric rail_fast ship" speed="3.65" length="4.67" shape="136498.74,68287.51 136497.43,68288.11 136496.54,68288.02 136496.07,68287.26 136496.02,68285.82"/>
    </edge>
    <edge id=":1371750095_4" function="internal">
        <lane id=":1371750095_4_0" index="0" disallow="tram rail_urban rail rail_electric rail_fast ship" speed="6.42" length="8.95" shape="136489.85,68295.33 136490.89,68293.16 136490.94,68291.17 136490.01,68289.36 136488.09,68287.74"/>
    </edge>
    <edge id=":1371750095_5" function="internal">
        <lane id=":1371750095_5_0" index="0" disallow="tram rail_urban rail rail_electric rail_fast ship" speed="8.33" length="11.34" shape="136489.85,68295.33 136496.02,68285.82"/>
    </edge>
    <edge id=":1371750095_6" function="internal">
        <lane id=":1371750095_6_0" index="0" disallow="tram rail_urban rail rail_electric rail_fast ship" speed="7.45" length="11.93" shape="136489.85,68295.33 136491.73,68293.53 136494.13,68292.91 136497.05,68293.49 136500.49,68295.25"/>
    </edge>
    <edge id=":1371750095_7" function="internal">
        <lane id=":1371750095_7_0" index="0" disallow="tram rail_urban rail rail_electric rail_fast ship" speed="3.65" length="4.67" shape="136489.85,68295.33 136491.18,68294.79 136492.07,68294.90 136492.51,68295.68 136492.50,68297.12"/>
    </edge>
    <edge id=":1371750097_0" function="internal">
        <lane id=":1371750097_0_0" index="0" disallow="tram rail_urban rail rail_electric rail_fast ship" speed="6.69" length="8.71" shape="136573.96,68342.44 136576.50,68343.43 136578.65,68343.64 136580.43,68343.05 136581.81,68341.67"/>
    </edge>
    <edge id=":1371750097_1" function="internal">
        <lane id=":1371750097_1_0" index="0" disallow="tram rail_urban rail rail_electric rail_fast ship" speed="6.34" length="9.30" shape="136573.96,68342.44 136575.88,68343.86 136576.73,68345.64 136576.53,68347.78 136575.27,68350.27"/>
    </edge>
    <edge id=":1371750099_0" function="internal">
        <lane id=":1371750099_0_0" index="0" disallow="tram rail_urban rail rail_electric rail_fast ship" speed="3.65" length="4.67" shape="136435.26,68386.50 136433.91,68387.03 136433.03,68386.91 136432.60,68386.12 136432.62,68384.68"/>
    </edge>
    <edge id=":1372205478_0" function="internal">
        <lane id=":1372205478_0_0" index="0" disallow="tram rail_urban rail rail_electric rail_fast ship" speed="8.33" length="0.44" shape="136381.26,67704.70 136381.30,67704.75 136381.33,67704.78 136381.36,67704.81 136381.41,67704.85"/>
        <lane id=":1372205478_0_1" index="1" disallow="tram rail_urban rail rail_electric rail_fast ship" speed="8.33" length="0.44" shape="136378.83,67706.79 136378.96,67706.94 136379.06,67707.04 136379.15,67707.13 136379.30,67707.26"/>
    </edge>
    <edge id=":1372233731_0" function="internal">
        <lane id=":1372233731_0_0" index="0" disallow="tram rail_urban rail rail_electric rail_fast ship" speed="8.33" length="13.11" shape="136095.97,67724.94 136097.75,67721.42 136098.39,67718.23 136097.89,67715.38 136096.23,67712.86"/>
        <lane id=":1372233731_0_1" index="1" disallow="tram rail_urban rail rail_electric rail_fast ship" speed="8.33" length="14.39" shape="136098.66,67726.67 136100.61,67722.93 136101.53,67719.42 136101.41,67716.14 136100.26,67713.08"/>
    </edge>
    <edge id=":1372233731_2" function="internal">
        <lane id=":1372233731_2_0" index="0" disallow="tram rail_urban rail rail_electric rail_fast ship" speed="8.33" length="13.77" shape="136098.66,67726.67 136106.43,67714.85"/>
        <lane id=":1372233731_2_1" index="1" disallow="tram rail_urban rail rail_electric rail_fast ship" speed="8.33" length="13.77" shape="136101.35,67728.39 136108.71,67717.20"/>
    </edge>
    <edge id=":1372233733_0" function="internal">
        <lane id=":1372233733_0_0" index="0" disallow="tram rail_urban rail rail_electric rail_fast ship" speed="6.43" length="8.97" shape="136227.04,67739.32 136224.81,67738.28 136222.80,67738.23 136221.00,67739.15 136219.42,67741.06"/>
    </edge>
    <edge id=":1372233733_1" function="internal">
        <lane id=":1372233733_1_0" index="0" disallow="tram rail_urban rail rail_electric rail_fast ship" speed="8.33" length="14.41" shape="136227.04,67739.32 136214.99,67731.42"/>
    </edge>
    <edge id=":1372233733_2" function="internal">
        <lane id=":1372233733_2_0" index="0" disallow="tram rail_urban rail rail_electric rail_fast ship" speed="3.65" length="1.44" shape="136227.04,67739.32 136226.47,67738.00"/>
    </edge>
    <edge id=":1372233733_9" function="internal">
        <lane id=":1372233733_9_0" index="0" disallow="tram rail_urban rail rail_electric rail_fast ship" speed="3.65" length="3.23" shape="136226.47,67738.00 136226.58,67737.11 136227.35,67736.66 136228.79,67736.65"/>
    </edge>
    <edge id=":1372233733_3" function="internal">
        <lane id=":1372233733_3_0" index="0" disallow="tram rail_urban rail rail_electric rail_fast ship" speed="8.33" length="14.40" shape="136216.75,67728.75 136228.79,67736.65"/>
    </edge>
    <edge id=":1372233733_4" function="internal">
        <lane id=":1372233733_4_0" index="0" disallow="tram rail_urban rail rail_electric rail_fast ship" speed="8.11" length="4.05" shape="136216.75,67728.75 136219.65,67731.31 136219.73,67731.47"/>
    </edge>
    <edge id=":1372233733_5" function="internal">
        <lane id=":1372233733_5_0" index="0" disallow="tram rail_urban rail rail_electric rail_fast ship" speed="3.65" length="1.44" shape="136216.75,67728.75 136217.31,67730.08"/>
    </edge>
    <edge id=":1372233733_10" function="internal">
        <lane id=":1372233733_10_0" index="0" disallow="tram rail_urban rail rail_electric rail_fast ship" speed="8.11" length="10.22" shape="136219.73,67731.47 136221.07,67734.22 136220.99,67737.47 136219.42,67741.06"/>
    </edge>
    <edge id=":1372233733_11" function="internal">
        <lane id=":1372233733_11_0" index="0" disallow="tram rail_urban rail rail_electric rail_fast ship" speed="3.65" length="3.23" shape="136217.31,67730.08 136217.21,67730.96 136216.44,67731.41 136214.99,67731.42"/>
    </edge>
    <edge id=":1372233733_6" function="internal">
        <lane id=":1372233733_6_0" index="0" disallow="tram rail_urban rail rail_electric rail_fast ship" speed="6.62" length="9.19" shape="136216.71,67739.35 136217.72,67737.04 136217.77,67734.95 136216.86,67733.08 136214.99,67731.42"/>
    </edge>
    <edge id=":1372233733_7" function="internal">
        <lane id=":1372233733_7_0" index="0" disallow="tram rail_urban rail rail_electric rail_fast ship" speed="7.93" length="14.21" shape="136216.71,67739.35 136219.21,67736.35 136222.06,67734.89 136225.26,67734.99 136228.79,67736.65"/>
    </edge>
    <edge id=":1372233733_8" function="internal">
        <lane id=":1372233733_8_0" index="0" disallow="tram rail_urban rail rail_electric rail_fast ship" speed="3.65" length="4.67" shape="136216.71,67739.35 136218.03,67738.76 136218.92,67738.85 136219.38,67739.61 136219.42,67741.06"/>
    </edge>
    <edge id=":1372233754_0" function="internal">
        <lane id=":1372233754_0_0" index="0" disallow="tram rail_urban rail rail_electric rail_fast ship" speed="5.73" length="9.27" shape="136160.26,67860.15 136157.79,67858.98 136155.93,67859.09 136154.68,67860.50 136154.04,67863.21"/>
    </edge>
    <edge id=":1372233754_1" function="internal">
        <lane id=":1372233754_1_0" index="0" disallow="tram rail_urban rail rail_electric rail_fast ship" speed="8.33" length="20.08" shape="136160.26,67860.15 136143.50,67849.08"/>
        <lane id=":1372233754_1_1" index="1" disallow="tram rail_urban rail rail_electric rail_fast ship" speed="8.33" length="20.08" shape="136162.02,67857.48 136145.27,67846.41"/>
    </edge>
    <edge id=":1372233754_3" function="internal">
        <lane id=":1372233754_3_0" index="0" disallow="tram rail_urban rail rail_electric rail_fast ship" speed="8.33" length="18.73" shape="136162.02,67857.48 136157.29,67853.94 136153.85,67850.38 136151.70,67846.80 136150.84,67843.20"/>
    </edge>
    <edge id=":1372233754_4" function="internal">
        <lane id=":1372233754_4_0" index="0" disallow="tram rail_urban rail rail_electric rail_fast ship" speed="8.33" length="20.20" shape="136154.03,67843.01 136154.04,67863.21"/>
    </edge>
    <edge id=":1372233754_5" function="internal">
        <lane id=":1372233754_5_0" index="0" disallow="tram rail_urban rail rail_electric rail_fast ship" speed="6.54" length="2.68" shape="136154.03,67843.01 136153.52,67845.64"/>
    </edge>
    <edge id=":1372233754_6" function="internal">
        <lane id=":1372233754_6_0" index="0" disallow="tram rail_urban rail rail_electric rail_fast ship" speed="3.70" length="1.44" shape="136154.03,67843.01 136153.31,67844.25"/>
    </edge>
    <edge id=":1372233754_10" function="internal">
        <lane id=":1372233754_10_0" index="0" disallow="tram rail_urban rail rail_electric rail_fast ship" speed="6.54" length="10.21" shape="136153.52,67845.64 136153.33,67846.58 136151.63,67848.33 136148.95,67848.28 136145.27,67846.41"/>
    </edge>
    <edge id=":1372233754_11" function="internal">
        <lane id=":1372233754_11_0" index="0" disallow="tram rail_urban rail rail_electric rail_fast ship" speed="3.70" length="3.24" shape="136153.31,67844.25 136152.53,67844.70 136151.71,67844.35 136150.84,67843.20"/>
    </edge>
    <edge id=":1372233754_7" function="internal">
        <lane id=":1372233754_7_0" index="0" disallow="tram rail_urban rail rail_electric rail_fast ship" speed="8.33" length="17.16" shape="136150.70,67863.08 136151.40,67859.51 136150.44,67855.99 136147.80,67852.51 136143.50,67849.08"/>
    </edge>
    <edge id=":1372233754_8" function="internal">
        <lane id=":1372233754_8_0" index="0" disallow="tram rail_urban rail rail_electric rail_fast ship" speed="8.33" length="20.00" shape="136150.70,67863.08 136151.60,67858.74 136151.62,67853.29 136151.22,67847.77 136150.84,67843.20"/>
    </edge>
    <edge id=":1372233754_9" function="internal">
        <lane id=":1372233754_9_0" index="0" disallow="tram rail_urban rail rail_electric rail_fast ship" speed="3.85" length="1.50" shape="136150.70,67863.08 136151.59,67861.86"/>
    </edge>
    <edge id=":1372233754_12" function="internal">
        <lane id=":1372233754_12_0" index="0" disallow="tram rail_urban rail rail_electric rail_fast ship" speed="3.85" length="3.37" shape="136151.59,67861.86 136152.44,67861.48 136153.25,67861.93 136154.04,67863.21"/>
    </edge>
    <edge id=":1372246313_0" function="internal">
        <lane id=":1372246313_0_0" index="0" disallow="tram rail_urban rail rail_electric rail_fast ship" speed="3.65" length="4.67" shape="136343.81,67473.72 136342.88,67472.62 136342.73,67471.74 136343.34,67471.08 136344.71,67470.66"/>
    </edge>
    <edge id=":1372247485_0" function="internal">
        <lane id=":1372247485_0_0" index="0" disallow="tram rail_urban rail rail_electric rail_fast ship" speed="6.86" length="10.44" shape="136445.68,67751.82 136448.49,67753.31 136450.95,67753.68 136453.04,67752.93 136454.77,67751.05"/>
    </edge>
    <edge id=":1372247485_1" function="internal">
        <lane id=":1372247485_1_0" index="0" disallow="tram rail_urban rail rail_electric rail_fast ship" speed="8.33" length="14.19" shape="136445.68,67751.82 136457.66,67759.41"/>
        <lane id=":1372247485_1_1" index="1" disallow="tram rail_urban rail rail_electric rail_fast ship" speed="8.33" length="14.19" shape="136443.98,67754.53 136455.96,67762.13"/>
    </edge>
    <edge id=":1372247485_3" function="internal">
        <lane id=":1372247485_3_0" index="0" disallow="tram rail_urban rail rail_electric rail_fast ship" speed="8.33" length="14.38" shape="136445.64,67762.13 136448.35,67758.46 136450.67,67755.92 136452.76,67753.71 136454.77,67751.05"/>
    </edge>
    <edge id=":1372247485_4" function="internal">
        <lane id=":1372247485_4_0" index="0" disallow="tram rail_urban rail rail_electric rail_fast ship" speed="6.47" length="8.91" shape="136448.34,67763.85 136449.97,67761.98 136451.78,67761.07 136453.78,67761.12 136455.96,67762.13"/>
    </edge>
    <edge id=":1372260455_0" function="internal">
        <lane id=":1372260455_0_0" index="0" disallow="tram rail_urban rail rail_electric rail_fast ship" speed="6.49" length="9.02" shape="136498.35,67538.39 136496.11,67537.38 136494.08,67537.35 136492.26,67538.28 136490.65,67540.18"/>
    </edge>
    <edge id=":1372260455_1" function="internal">
        <lane id=":1372260455_1_0" index="0" disallow="tram rail_urban rail rail_electric rail_fast ship" speed="8.33" length="14.37" shape="136498.35,67538.39 136486.31,67530.54"/>
    </edge>
    <edge id=":1372260455_2" function="internal">
        <lane id=":1372260455_2_0" index="0" disallow="tram rail_urban rail rail_electric rail_fast ship" speed="3.65" length="4.67" shape="136498.35,67538.39 136497.76,67537.07 136497.86,67536.18 136498.62,67535.72 136500.07,67535.69"/>
    </edge>
    <edge id=":1372260455_3" function="internal">
        <lane id=":1372260455_3_0" index="0" disallow="tram rail_urban rail rail_electric rail_fast ship" speed="8.33" length="14.30" shape="136488.09,67527.88 136500.07,67535.69"/>
    </edge>
    <edge id=":1372260455_4" function="internal">
        <lane id=":1372260455_4_0" index="0" disallow="tram rail_urban rail rail_electric rail_fast ship" speed="8.09" length="14.25" shape="136488.09,67527.88 136490.97,67530.47 136492.36,67533.38 136492.25,67536.62 136490.65,67540.18"/>
    </edge>
    <edge id=":1372260455_5" function="internal">
        <lane id=":1372260455_5_0" index="0" disallow="tram rail_urban rail rail_electric rail_fast ship" speed="3.65" length="4.67" shape="136488.09,67527.88 136488.64,67529.21 136488.53,67530.10 136487.75,67530.54 136486.31,67530.54"/>
    </edge>
    <edge id=":1372260455_6" function="internal">
        <lane id=":1372260455_6_0" index="0" disallow="tram rail_urban rail rail_electric rail_fast ship" speed="6.64" length="9.26" shape="136487.90,67538.55 136488.96,67536.21 136489.04,67534.10 136488.16,67532.21 136486.31,67530.54"/>
    </edge>
    <edge id=":1372260455_7" function="internal">
        <lane id=":1372260455_7_0" index="0" disallow="tram rail_urban rail rail_electric rail_fast ship" speed="8.01" length="14.26" shape="136487.90,67538.55 136490.45,67535.53 136493.33,67534.05 136496.53,67534.10 136500.07,67535.69"/>
    </edge>
    <edge id=":1372260455_8" function="internal">
        <lane id=":1372260455_8_0" index="0" disallow="tram rail_urban rail rail_electric rail_fast ship" speed="3.65" length="4.67" shape="136487.90,67538.55 136489.20,67537.92 136490.09,67537.99 136490.58,67538.74 136490.65,67540.18"/>
    </edge>
    <edge id=":1372260491_0" function="internal">
        <lane id=":1372260491_0_0" index="0" disallow="tram rail_urban rail rail_electric rail_fast ship" speed="6.51" length="9.15" shape="136562.49,67575.45 136564.79,67576.60 136566.87,67576.75 136568.73,67575.92 136570.37,67574.08"/>
    </edge>
    <edge id=":1372260491_1" function="internal">
        <lane id=":1372260491_1_0" index="0" disallow="tram rail_urban rail rail_electric rail_fast ship" speed="8.33" length="11.41" shape="136562.49,67575.45 136564.97,67577.45 136566.69,67579.29 136568.42,67581.14 136570.90,67583.13"/>
    </edge>
    <edge id=":1372260491_2" function="internal">
        <lane id=":1372260491_2_0" index="0" disallow="tram rail_urban rail rail_electric rail_fast ship" speed="3.65" length="4.67" shape="136562.49,67575.45 136563.03,67576.79 136562.91,67577.68 136562.13,67578.11 136560.69,67578.10"/>
    </edge>
    <edge id=":1372260491_3" function="internal">
        <lane id=":1372260491_3_0" index="0" disallow="tram rail_urban rail rail_electric rail_fast ship" speed="6.48" length="9.03" shape="136562.09,67585.87 136563.22,67583.66 136563.36,67581.62 136562.52,67579.77 136560.69,67578.10"/>
    </edge>
    <edge id=":1372260491_4" function="internal">
        <lane id=":1372260491_4_0" index="0" disallow="tram rail_urban rail rail_electric rail_fast ship" speed="8.33" length="14.40" shape="136562.09,67585.87 136570.37,67574.08"/>
    </edge>
    <edge id=":1372260491_5" function="internal">
        <lane id=":1372260491_5_0" index="0" disallow="tram rail_urban rail rail_electric rail_fast ship" speed="6.98" length="10.43" shape="136562.09,67585.87 136564.20,67583.48 136566.37,67582.23 136568.60,67582.11 136570.90,67583.13"/>
    </edge>
    <edge id=":1372260494_0" function="internal">
        <lane id=":1372260494_0_0" index="0" disallow="tram rail_urban rail rail_electric rail_fast ship" speed="6.29" length="5.12" shape="136457.34,67591.62 136456.84,67590.39 136456.70,67589.17 136456.92,67587.95 136457.49,67586.75"/>
    </edge>
    <edge id=":1372260494_1" function="internal">
        <lane id=":1372260494_1_0" index="0" disallow="tram rail_urban rail rail_electric rail_fast ship" speed="4.01" length="1.71" shape="136460.20,67588.46 136460.01,67588.86 136459.93,67589.26 136459.98,67589.67 136460.15,67590.08"/>
    </edge>
    <edge id=":1372260497_0" function="internal">
        <lane id=":1372260497_0_0" index="0" disallow="tram rail_urban rail rail_electric rail_fast ship" speed="8.33" length="11.41" shape="136526.58,67649.77 136517.18,67643.29"/>
    </edge>
    <edge id=":1372260497_1" function="internal">
        <lane id=":1372260497_1_0" index="0" disallow="tram rail_urban rail rail_electric rail_fast ship" speed="7.44" length="11.95" shape="136526.58,67649.77 136524.81,67647.87 136524.24,67645.47 136524.88,67642.55 136526.72,67639.11"/>
    </edge>
    <edge id=":1372260497_2" function="internal">
        <lane id=":1372260497_2_0" index="0" disallow="tram rail_urban rail rail_electric rail_fast ship" speed="3.65" length="4.67" shape="136526.58,67649.77 136526.05,67648.43 136526.17,67647.54 136526.96,67647.11 136528.40,67647.13"/>
    </edge>
    <edge id=":1372260497_3" function="internal">
        <lane id=":1372260497_3_0" index="0" disallow="tram rail_urban rail rail_electric rail_fast ship" speed="6.50" length="8.97" shape="136519.00,67640.66 136521.23,67641.71 136523.27,67641.80 136525.09,67640.94 136526.72,67639.11"/>
    </edge>
    <edge id=":1372260497_4" function="internal">
        <lane id=":1372260497_4_0" index="0" disallow="tram rail_urban rail rail_electric rail_fast ship" speed="8.33" length="11.42" shape="136519.00,67640.66 136528.40,67647.13"/>
    </edge>
    <edge id=":1372260497_5" function="internal">
        <lane id=":1372260497_5_0" index="0" disallow="tram rail_urban rail rail_electric rail_fast ship" speed="3.65" length="4.67" shape="136519.00,67640.66 136519.53,67642.00 136519.41,67642.88 136518.63,67643.31 136517.18,67643.29"/>
    </edge>
    <edge id=":1372260497_6" function="internal">
        <lane id=":1372260497_6_0" index="0" disallow="tram rail_urban rail rail_electric rail_fast ship" speed="6.63" length="9.34" shape="136518.88,67651.32 136519.94,67648.99 136520.02,67646.88 136519.10,67644.98 136517.18,67643.29"/>
    </edge>
    <edge id=":1372260497_7" function="internal">
        <lane id=":1372260497_7_0" index="0" disallow="tram rail_urban rail rail_electric rail_fast ship" speed="8.33" length="14.51" shape="136518.88,67651.32 136526.72,67639.11"/>
    </edge>
    <edge id=":1372260497_8" function="internal">