<?xml version="1.0" encoding="UTF-8"?>
<routes>
	<!--	1. Make the changes to the next code row below
			2. Log the chosen parameters as a new scenario in the comments after the other scenarios
			3. Save the file
			4. Return to the command line and press Enter
	s-->
	<vType id="type1" accel="0.4" decel="4.8" sigma="0.5" length="5" maxSpeed="40"/>

	<!-- Scenarios 1 & 2-->
	<!-- <vType id="type1" accel="0.4" decel="4.8" sigma="0.5" length="5" maxSpeed="40"/> -->

	<!-- Scenario 3 -->
	<!-- <vType id="type1" accel="0.8" decel="4.5" sigma="0.5" length="5" maxSpeed="10"/> -->

	<!-- Scenario 4 -->
	<!-- <vType id="type1" accel="0.4" decel="2.75" sigma="0.5" length="5" maxSpeed="10"/> -->

	<trip id="test_trip_0" type="type1" depart="0.0" from="572656879" to="1039345572#0"/>
	<trip id="test_trip_1" type="type1" depart="0.09090909090909091" from="29872531" to="194388451#0"/>
	<trip id="test_trip_2" type="type1" depart="0.18181818181818182" from="62212739#0" to="122962417"/>
	<trip id="test_trip_3" type="type1" depart="0.2727272727272727" from="30903129#0" to="-126897923#0"/>
	<trip id="test_trip_4" type="type1" depart="0.36363636363636365" from="30260452" to="122949520#1"/>
	<trip id="test_trip_5" type="type1" depart="0.4545454545454546" from="80702170#1" to="572656872#0"/>
	<trip id="test_trip_6" type="type1" depart="0.5454545454545455" from="-344789082" to="37280749"/>
	<trip id="test_trip_7" type="type1" depart="0.6363636363636365" from="37280749" to="-21564980#0"/>
	<trip id="test_trip_8" type="type1" depart="0.7272727272727274" from="30001902" to="-114554759#0"/>
	<trip id="test_trip_9" type="type1" depart="0.8181818181818183" from="-36729010#0" to="28228803#1"/>
	<trip id="test_trip_10" type="type1" depart="0.9090909090909093" from="37287290" to="36726223#1"/>
	<trip id="test_trip_11" type="type1" depart="1.0000000000000002" from="42412490" to="42919373#1"/>
	<trip id="test_trip_12" type="type1" depart="1.090909090909091" from="18385008#0" to="77615451#0"/>
	<trip id="test_trip_13" type="type1" depart="1.1818181818181819" from="122949522" to="30568275#0"/>
	<trip id="test_trip_14" type="type1" depart="1.2727272727272727" from="-44960714#1" to="342717767#1"/>
	<trip id="test_trip_15" type="type1" depart="1.3636363636363635" from="-97129661" to="38156742"/>
	<trip id="test_trip_16" type="type1" depart="1.4545454545454544" from="-333061573#2" to="37282869#1"/>
	<trip id="test_trip_17" type="type1" depart="1.5454545454545452" from="30528384#0" to="128916509"/>
	<trip id="test_trip_18" type="type1" depart="1.636363636363636" from="-47796503" to="30001818"/>
	<trip id="test_trip_19" type="type1" depart="1.7272727272727268" from="-36729030" to="58077051"/>
	<trip id="test_trip_20" type="type1" depart="1.8181818181818177" from="124448646" to="30263579"/>
	<trip id="test_trip_21" type="type1" depart="1.9090909090909085" from="37293912#1" to="58077048#0"/>
	<trip id="test_trip_22" type="type1" depart="1.9999999999999993" from="124448646" to="234100501#2"/>
	<trip id="test_trip_23" type="type1" depart="2.0909090909090904" from="37290604" to="37280749"/>
	<trip id="test_trip_24" type="type1" depart="2.181818181818181" from="-126894678#0" to="37280749"/>
	<trip id="test_trip_25" type="type1" depart="2.272727272727272" from="30568275#0" to="77615451#1"/>
	<trip id="test_trip_26" type="type1" depart="2.363636363636363" from="-126894676#0" to="77615982"/>
	<trip id="test_trip_27" type="type1" depart="2.4545454545454537" from="30568275#0" to="195828017#0"/>
	<trip id="test_trip_28" type="type1" depart="2.5454545454545445" from="36729010#1" to="9776916"/>
	<trip id="test_trip_29" type="type1" depart="2.6363636363636354" from="1039345572#0" to="-36726220#0"/>
	<trip id="test_trip_30" type="type1" depart="2.727272727272726" from="-122949522" to="-36729010#0"/>
	<trip id="test_trip_31" type="type1" depart="2.818181818181817" from="28903078" to="61059623"/>
	<trip id="test_trip_32" type="type1" depart="2.909090909090908" from="122964118#0" to="-37282869#0"/>
	<trip id="test_trip_33" type="type1" depart="2.9999999999999987" from="29872531" to="25521359"/>
	<trip id="test_trip_34" type="type1" depart="3.0909090909090895" from="114554779#1" to="21081120#1"/>
	<trip id="test_trip_35" type="type1" depart="3.1818181818181803" from="-126895740" to="234100501#2"/>
	<trip id="test_trip_36" type="type1" depart="3.272727272727271" from="122948203" to="-196972961"/>
	<trip id="test_trip_37" type="type1" depart="3.363636363636362" from="126894678#4" to="122950927#0"/>
	<trip id="test_trip_38" type="type1" depart="3.454545454545453" from="80702170#1" to="81523598#1"/>
	<trip id="test_trip_39" type="type1" depart="3.5454545454545436" from="60710546#0" to="-1066551973"/>
	<trip id="test_trip_40" type="type1" depart="3.6363636363636345" from="332399561#2" to="-317000783"/>
	<trip id="test_trip_41" type="type1" depart="3.7272727272727253" from="23180033" to="122948203"/>
	<trip id="test_trip_42" type="type1" depart="3.818181818181816" from="30263579" to="123635330"/>
	<trip id="test_trip_43" type="type1" depart="3.909090909090907" from="36726223#1" to="-114554779#0"/>
	<trip id="test_trip_44" type="type1" depart="3.999999999999998" from="25521359" to="81527789#1"/>
	<trip id="test_trip_45" type="type1" depart="4.090909090909089" from="-126894682#0" to="24673382"/>
	<trip id="test_trip_46" type="type1" depart="4.18181818181818" from="30529498" to="42107700#1"/>
	<trip id="test_trip_47" type="type1" depart="4.272727272727271" from="122948203" to="86533509#0"/>
	<trip id="test_trip_48" type="type1" depart="4.3636363636363615" from="205434518" to="342717767#1"/>
	<trip id="test_trip_49" type="type1" depart="4.454545454545452" from="-21081120#0" to="30955822"/>
	<trip id="test_trip_50" type="type1" depart="4.545454545454543" from="114554764#2" to="30528321"/>
	<trip id="test_trip_51" type="type1" depart="4.636363636363634" from="739515975" to="114554779#1"/>
	<trip id="test_trip_52" type="type1" depart="4.727272727272725" from="315526581#2" to="572656872#0"/>
	<trip id="test_trip_53" type="type1" depart="4.818181818181816" from="23180032" to="-28228803#1"/>
	<trip id="test_trip_54" type="type1" depart="4.9090909090909065" from="-42919365" to="-47796503"/>
	<trip id="test_trip_55" type="type1" depart="4.999999999999997" from="37293912#1" to="-80727853"/>
	<trip id="test_trip_56" type="type1" depart="5.090909090909088" from="15090664" to="-28228803#1"/>
	<trip id="test_trip_57" type="type1" depart="5.181818181818179" from="22486710" to="370070636"/>
	<trip id="test_trip_58" type="type1" depart="5.27272727272727" from="80702168#1" to="-317000783"/>
	<trip id="test_trip_59" type="type1" depart="5.363636363636361" from="-37290602" to="-37290602"/>
	<trip id="test_trip_60" type="type1" depart="5.4545454545454515" from="-114554802#2" to="58077051"/>
	<trip id="test_trip_61" type="type1" depart="5.545454545454542" from="-23180036" to="127104869#0"/>
	<trip id="test_trip_62" type="type1" depart="5.636363636363633" from="205434518" to="-315526580#1"/>
	<trip id="test_trip_63" type="type1" depart="5.727272727272724" from="114555768#1" to="-37282871#1"/>
	<trip id="test_trip_64" type="type1" depart="5.818181818181815" from="-37290602" to="42412490"/>
	<trip id="test_trip_65" type="type1" depart="5.909090909090906" from="-233999572" to="-122949520#1"/>
	<trip id="test_trip_66" type="type1" depart="5.9999999999999964" from="166564262" to="-42919365"/>
	<trip id="test_trip_67" type="type1" depart="6.090909090909087" from="36726220#1" to="37282869#1"/>
	<trip id="test_trip_68" type="type1" depart="6.181818181818178" from="-122949520#1" to="114554759#1"/>
	<trip id="test_trip_69" type="type1" depart="6.272727272727269" from="37260960" to="-344789092"/>
	<trip id="test_trip_70" type="type1" depart="6.36363636363636" from="126894682#1" to="38156743#0"/>
	<trip id="test_trip_71" type="type1" depart="6.454545454545451" from="81924141#1" to="82410875"/>
	<trip id="test_trip_72" type="type1" depart="6.545454545454541" from="15101963" to="194388451#0"/>
	<trip id="test_trip_73" type="type1" depart="6.636363636363632" from="-21564980#0" to="23025219#0"/>
	<trip id="test_trip_74" type="type1" depart="6.727272727272723" from="195828013" to="122949520#0"/>
	<trip id="test_trip_75" type="type1" depart="6.818181818181814" from="-80727853" to="21081120#1"/>
	<trip id="test_trip_76" type="type1" depart="6.909090909090905" from="44960714#0" to="122949524#1"/>
	<trip id="test_trip_77" type="type1" depart="6.999999999999996" from="-81527787#1" to="38156742"/>
	<trip id="test_trip_78" type="type1" depart="7.090909090909086" from="-81924137#0" to="317000783"/>
	<trip id="test_trip_79" type="type1" depart="7.181818181818177" from="81527789#1" to="36726223#1"/>
	<trip id="test_trip_80" type="type1" depart="7.272727272727268" from="7715843" to="24673382"/>
	<trip id="test_trip_81" type="type1" depart="7.363636363636359" from="122949524#1" to="122957398"/>
	<trip id="test_trip_82" type="type1" depart="7.45454545454545" from="234100501#2" to="7920348"/>
	<trip id="test_trip_83" type="type1" depart="7.5454545454545405" from="-122949522" to="-21081120#0"/>
	<trip id="test_trip_84" type="type1" depart="7.636363636363631" from="-21081120#0" to="-114554800"/>
	<trip id="test_trip_85" type="type1" depart="7.727272727272722" from="210000435" to="122948858#0"/>
	<trip id="test_trip_86" type="type1" depart="7.818181818181813" from="8014829#1" to="28408345"/>
	<trip id="test_trip_87" type="type1" depart="7.909090909090904" from="-125602434" to="123635329"/>
	<trip id="test_trip_88" type="type1" depart="7.999999999999995" from="23180032" to="30529623"/>
	<trip id="test_trip_89" type="type1" depart="8.090909090909086" from="317000783" to="-21081120#0"/>
	<trip id="test_trip_90" type="type1" depart="8.181818181818178" from="-101154827" to="186631612#1"/>
	<trip id="test_trip_91" type="type1" depart="8.27272727272727" from="-37282869#0" to="128916509"/>
	<trip id="test_trip_92" type="type1" depart="8.363636363636362" from="-36729017" to="-37282871#1"/>
	<trip id="test_trip_93" type="type1" depart="8.454545454545453" from="80702168#1" to="572656872#0"/>
	<trip id="test_trip_94" type="type1" depart="8.545454545454545" from="114554764#2" to="30955822"/>
	<trip id="test_trip_95" type="type1" depart="8.636363636363637" from="-315526580#1" to="217644150"/>
	<trip id="test_trip_96" type="type1" depart="8.727272727272728" from="-125602434" to="-42919373#0"/>
	<trip id="test_trip_97" type="type1" depart="8.81818181818182" from="29186154#1" to="29186154#1"/>
	<trip id="test_trip_98" type="type1" depart="8.909090909090912" from="62212736#2" to="9776916"/>
	<trip id="test_trip_99" type="type1" depart="9.000000000000004" from="18385008#0" to="-81527787#1"/>
	<trip id="test_trip_100" type="type1" depart="9.090909090909095" from="33887120" to="217644146"/>
	<trip id="test_trip_101" type="type1" depart="9.181818181818187" from="-81924137#0" to="-29186154#0"/>
	<trip id="test_trip_102" type="type1" depart="9.272727272727279" from="60710546#0" to="-315526580#1"/>
	<trip id="test_trip_103" type="type1" depart="9.36363636363637" from="24479686#0" to="-37282871#1"/>
	<trip id="test_trip_104" type="type1" depart="9.454545454545462" from="30528321" to="114554779#1"/>
	<trip id="test_trip_105" type="type1" depart="9.545454545454554" from="126895736" to="-21081120#0"/>
	<trip id="test_trip_106" type="type1" depart="9.636363636363646" from="-36729030" to="317000784#0"/>
	<trip id="test_trip_107" type="type1" depart="9.727272727272737" from="-28228803#1" to="24673380"/>
	<trip id="test_trip_108" type="type1" depart="9.818181818181829" from="37287290" to="30903129#0"/>
	<trip id="test_trip_109" type="type1" depart="9.90909090909092" from="122949524#1" to="15223910#0"/>
	<trip id="test_trip_110" type="type1" depart="10.000000000000012" from="-42919373#0" to="77615982"/>
	<trip id="test_trip_111" type="type1" depart="10.090909090909104" from="42107699#0" to="126894682#1"/>
	<trip id="test_trip_112" type="type1" depart="10.181818181818196" from="28546082" to="122949524#0"/>
	<trip id="test_trip_113" type="type1" depart="10.272727272727288" from="-28842830" to="-81527789#0"/>
	<trip id="test_trip_114" type="type1" depart="10.36363636363638" from="81522820#1" to="126894682#1"/>
	<trip id="test_trip_115" type="type1" depart="10.454545454545471" from="333061574#1" to="315526581#2"/>
	<trip id="test_trip_116" type="type1" depart="10.545454545454563" from="29872531" to="23180032"/>
	<trip id="test_trip_117" type="type1" depart="10.636363636363654" from="28408160#0" to="-122949524#0"/>
	<trip id="test_trip_118" type="type1" depart="10.727272727272746" from="317000784#0" to="29186154#1"/>
	<trip id="test_trip_119" type="type1" depart="10.818181818181838" from="30956219#1" to="210000435"/>
	<trip id="test_trip_120" type="type1" depart="10.90909090909093" from="126894676#1" to="122948203"/>
	<trip id="test_trip_121" type="type1" depart="11.000000000000021" from="314642995#1" to="-114554759#0"/>
	<trip id="test_trip_122" type="type1" depart="11.090909090909113" from="-36729010#0" to="30528321"/>
	<trip id="test_trip_123" type="type1" depart="11.181818181818205" from="210000435" to="-44960714#1"/>
	<trip id="test_trip_124" type="type1" depart="11.272727272727296" from="81527789#1" to="8014829#1"/>
	<trip id="test_trip_125" type="type1" depart="11.363636363636388" from="217644146" to="126895736"/>
	<trip id="test_trip_126" type="type1" depart="11.45454545454548" from="30956554#0" to="27132254#0"/>
	<trip id="test_trip_127" type="type1" depart="11.545454545454572" from="-76335649" to="24673380"/>
	<trip id="test_trip_128" type="type1" depart="11.636363636363663" from="62212736#2" to="62201341#1"/>
	<trip id="test_trip_129" type="type1" depart="11.727272727272755" from="30263579" to="126894678#4"/>
	<trip id="test_trip_130" type="type1" depart="11.818181818181847" from="-114554800" to="86533504"/>
	<trip id="test_trip_131" type="type1" depart="11.909090909090938" from="8014829#0" to="332399561#2"/>
	<trip id="test_trip_132" type="type1" depart="12.00000000000003" from="-37293912#0" to="-126897923#0"/>
	<trip id="test_trip_133" type="type1" depart="12.090909090909122" from="-23180036" to="36726223#1"/>
	<trip id="test_trip_134" type="type1" depart="12.181818181818214" from="-126894678#3" to="122948839#0"/>
	<trip id="test_trip_135" type="type1" depart="12.272727272727305" from="42107700#1" to="60710546#0"/>
	<trip id="test_trip_136" type="type1" depart="12.363636363636397" from="-196972961" to="122949520#0"/>
	<trip id="test_trip_137" type="type1" depart="12.454545454545489" from="-21564980#0" to="-122949524#0"/>
	<trip id="test_trip_138" type="type1" depart="12.54545454545458" from="-126894676#0" to="42919373#1"/>
	<trip id="test_trip_139" type="type1" depart="12.636363636363672" from="29186154#1" to="217644146"/>
	<trip id="test_trip_140" type="type1" depart="12.727272727272764" from="-342534666#0" to="-126894678#0"/>
	<trip id="test_trip_141" type="type1" depart="12.818181818181856" from="-36726223#0" to="77615451#0"/>
	<trip id="test_trip_142" type="type1" depart="12.909090909090947" from="-186631612#0" to="77615982"/>
	<trip id="test_trip_143" type="type1" depart="13.000000000000039" from="15101963" to="36729015#1"/>
	<trip id="test_trip_144" type="type1" depart="13.09090909090913" from="-125602434" to="1039345572#0"/>
	<trip id="test_trip_145" type="type1" depart="13.181818181818223" from="-333061574#0" to="-315526580#1"/>
	<trip id="test_trip_146" type="type1" depart="13.272727272727314" from="572656872#0" to="217644146"/>
	<trip id="test_trip_147" type="type1" depart="13.363636363636406" from="122948203" to="-42919365"/>
	<trip id="test_trip_148" type="type1" depart="13.454545454545498" from="30528321" to="38156743#0"/>
	<trip id="test_trip_149" type="type1" depart="13.54545454545459" from="-15101963" to="-317000783"/>
	<trip id="test_trip_150" type="type1" depart="13.636363636363681" from="37282869#1" to="21564980#1"/>
	<trip id="test_trip_151" type="type1" depart="13.727272727272773" from="-217644146" to="81924134"/>
	<trip id="test_trip_152" type="type1" depart="13.818181818181865" from="30956219#1" to="30529623"/>
	<trip id="test_trip_153" type="type1" depart="13.909090909090956" from="310792148" to="195828017#0"/>
	<trip id="test_trip_154" type="type1" depart="14.000000000000048" from="195828013" to="-28228803#0"/>
	<trip id="test_trip_155" type="type1" depart="14.09090909090914" from="15090664" to="217644150"/>
	<trip id="test_trip_156" type="type1" depart="14.181818181818231" from="42919373#1" to="28586048"/>
	<trip id="test_trip_157" type="type1" depart="14.272727272727323" from="-36729010#0" to="29064946#0"/>
	<trip id="test_trip_158" type="type1" depart="14.363636363636415" from="-28228803#1" to="114554779#1"/>
	<trip id="test_trip_159" type="type1" depart="14.454545454545507" from="-196972961" to="-15101963"/>
	<trip id="test_trip_160" type="type1" depart="14.545454545454598" from="-28842830" to="-37282869#1"/>
	<trip id="test_trip_161" type="type1" depart="14.63636363636369" from="81522820#1" to="572656879"/>
	<trip id="test_trip_162" type="type1" depart="14.727272727272782" from="127104869#0" to="310792148"/>
	<trip id="test_trip_163" type="type1" depart="14.818181818181873" from="317000783" to="82410875"/>
	<trip id="test_trip_164" type="type1" depart="14.909090909090965" from="-126897923#0" to="25614338#0"/>
	<trip id="test_trip_165" type="type1" depart="15.000000000000057" from="122946787#0" to="61059606#0"/>
	<trip id="test_trip_166" type="type1" depart="15.090909090909149" from="234100501#2" to="-114557570"/>
	<trip id="test_trip_167" type="type1" depart="15.18181818181824" from="36729015#1" to="-101154827"/>
	<trip id="test_trip_168" type="type1" depart="15.272727272727332" from="24479833" to="36726220#1"/>
	<trip id="test_trip_169" type="type1" depart="15.363636363636424" from="-28228803#1" to="-126895740"/>
	<trip id="test_trip_170" type="type1" depart="15.454545454545515" from="62201341#1" to="1066551973"/>
	<trip id="test_trip_171" type="type1" depart="15.545454545454607" from="30528384#0" to="-81527787#1"/>
	<trip id="test_trip_172" type="type1" depart="15.636363636363699" from="81522820#1" to="81924134"/>
	<trip id="test_trip_173" type="type1" depart="15.72727272727279" from="21081120#1" to="-81527787#1"/>
	<trip id="test_trip_174" type="type1" depart="15.818181818181882" from="-114557570" to="-37287288"/>
	<trip id="test_trip_175" type="type1" depart="15.909090909090974" from="-37282871#1" to="122962417"/>
	<trip id="test_trip_176" type="type1" depart="16.000000000000064" from="217189185#0" to="81523598#1"/>
	<trip id="test_trip_177" type="type1" depart="16.090909090909154" from="122949520#0" to="-76335649"/>
	<trip id="test_trip_178" type="type1" depart="16.181818181818244" from="317000783" to="30568275#0"/>
	<trip id="test_trip_179" type="type1" depart="16.272727272727334" from="24673380" to="-37287288"/>
	<trip id="test_trip_180" type="type1" depart="16.363636363636424" from="-233999572" to="342717767#1"/>
	<trip id="test_trip_181" type="type1" depart="16.454545454545514" from="-97129661" to="28228803#1"/>
	<trip id="test_trip_182" type="type1" depart="16.545454545454604" from="37280749" to="572656872#0"/>
	<trip id="test_trip_183" type="type1" depart="16.636363636363694" from="315526581#2" to="28228803#1"/>
	<trip id="test_trip_184" type="type1" depart="16.727272727272783" from="18385008#0" to="77615982"/>
	<trip id="test_trip_185" type="type1" depart="16.818181818181873" from="37282869#1" to="-44960714#1"/>
	<trip id="test_trip_186" type="type1" depart="16.909090909090963" from="-42919365" to="30568275#0"/>
	<trip id="test_trip_187" type="type1" depart="17.000000000000053" from="-317000783" to="-122949520#0"/>
	<trip id="test_trip_188" type="type1" depart="17.090909090909143" from="25521359" to="114554802#3"/>
	<trip id="test_trip_189" type="type1" depart="17.181818181818233" from="-21081120#0" to="30529623"/>
	<trip id="test_trip_190" type="type1" depart="17.272727272727323" from="-126894682#0" to="-342534666#0"/>
	<trip id="test_trip_191" type="type1" depart="17.363636363636413" from="370070636" to="-21564980#0"/>
	<trip id="test_trip_192" type="type1" depart="17.454545454545503" from="-186631612#0" to="15245482"/>
	<trip id="test_trip_193" type="type1" depart="17.545454545454593" from="1066551973" to="36726221#0"/>
	<trip id="test_trip_194" type="type1" depart="17.636363636363683" from="30001902" to="342717767#1"/>
	<trip id="test_trip_195" type="type1" depart="17.727272727272773" from="-101154827" to="114554802#3"/>
	<trip id="test_trip_196" type="type1" depart="17.818181818181863" from="-122949520#0" to="342534666#1"/>
	<trip id="test_trip_197" type="type1" depart="17.909090909090953" from="370070636" to="-122949522"/>
	<trip id="test_trip_198" type="type1" depart="18.000000000000043" from="-80727853" to="-47796503"/>
	<trip id="test_trip_199" type="type1" depart="18.090909090909133" from="60710546#0" to="-82410880#0"/>
	<trip id="test_trip_200" type="type1" depart="18.181818181818223" from="-36726220#0" to="30001902"/>
	<trip id="test_trip_201" type="type1" depart="18.272727272727312" from="342534666#1" to="195828013"/>
	<trip id="test_trip_202" type="type1" depart="18.363636363636402" from="-37282869#1" to="36726221#0"/>
	<trip id="test_trip_203" type="type1" depart="18.454545454545492" from="24673380" to="24673382"/>
	<trip id="test_trip_204" type="type1" depart="18.545454545454582" from="36729009" to="24673382"/>
	<trip id="test_trip_205" type="type1" depart="18.636363636363672" from="-81527787#1" to="37280749"/>
	<trip id="test_trip_206" type="type1" depart="18.727272727272762" from="-1066551973" to="-81527789#0"/>
	<trip id="test_trip_207" type="type1" depart="18.818181818181852" from="62201341#1" to="15090664"/>
	<trip id="test_trip_208" type="type1" depart="18.909090909090942" from="8014829#0" to="-36729030"/>
	<trip id="test_trip_209" type="type1" depart="19.000000000000032" from="-126894682#1" to="127104869#0"/>
	<trip id="test_trip_210" type="type1" depart="19.090909090909122" from="-80727852" to="30001818"/>
	<trip id="test_trip_211" type="type1" depart="19.181818181818212" from="36726220#1" to="-37293912#0"/>
	<trip id="test_trip_212" type="type1" depart="19.272727272727302" from="25521359" to="58077048#0"/>
	<trip id="test_trip_213" type="type1" depart="19.36363636363639" from="122946787#0" to="9776916"/>
	<trip id="test_trip_214" type="type1" depart="19.45454545454548" from="81527192" to="-122949520#1"/>
	<trip id="test_trip_215" type="type1" depart="19.54545454545457" from="9776916" to="-37282871#1"/>
	<trip id="test_trip_216" type="type1" depart="19.63636363636366" from="-28228803#0" to="127104869#0"/>
	<trip id="test_trip_217" type="type1" depart="19.72727272727275" from="36729009" to="122962417"/>
	<trip id="test_trip_218" type="type1" depart="19.81818181818184" from="114554764#2" to="122949522"/>
	<trip id="test_trip_219" type="type1" depart="19.90909090909093" from="-80727853" to="217644150"/>
	<trip id="test_trip_220" type="type1" depart="20.00000000000002" from="-37293912#0" to="-1066551973"/>
	<trip id="test_trip_221" type="type1" depart="20.09090909090911" from="42107700#1" to="24479683"/>
	<trip id="test_trip_222" type="type1" depart="20.1818181818182" from="-217644146" to="86533509#0"/>
	<trip id="test_trip_223" type="type1" depart="20.27272727272729" from="114554764#2" to="-122949522"/>
	<trip id="test_trip_224" type="type1" depart="20.36363636363638" from="-114557570" to="81527789#1"/>
	<trip id="test_trip_225" type="type1" depart="20.45454545454547" from="217189185#0" to="36729010#1"/>
	<trip id="test_trip_226" type="type1" depart="20.54545454545456" from="-114557570" to="42107700#1"/>
	<trip id="test_trip_227" type="type1" depart="20.63636363636365" from="36726220#1" to="126894678#4"/>
	<trip id="test_trip_228" type="type1" depart="20.72727272727274" from="-37282869#0" to="-28228803#1"/>
	<trip id="test_trip_229" type="type1" depart="20.81818181818183" from="-101154827" to="-80727852"/>
	<trip id="test_trip_230" type="type1" depart="20.90909090909092" from="1039345572#0" to="42107700#1"/>
	<trip id="test_trip_231" type="type1" depart="21.00000000000001" from="114554802#3" to="-42919373#0"/>
	<trip id="test_trip_232" type="type1" depart="21.0909090909091" from="-114554800" to="36726221#0"/>
	<trip id="test_trip_233" type="type1" depart="21.18181818181819" from="-126894676#0" to="77615982"/>
	<trip id="test_trip_234" type="type1" depart="21.27272727272728" from="-1066551973" to="15101958"/>
	<trip id="test_trip_235" type="type1" depart="21.36363636363637" from="217644146" to="29064946#0"/>
	<trip id="test_trip_236" type="type1" depart="21.45454545454546" from="81924134" to="36729009"/>
	<trip id="test_trip_237" type="type1" depart="21.54545454545455" from="-122949524#0" to="-114554759#0"/>
	<trip id="test_trip_238" type="type1" depart="21.63636363636364" from="234100501#2" to="122950927#0"/>
	<trip id="test_trip_239" type="type1" depart="21.72727272727273" from="23180033" to="81522820#1"/>
	<trip id="test_trip_240" type="type1" depart="21.81818181818182" from="123635330" to="77615981#0"/>
	<trip id="test_trip_241" type="type1" depart="21.90909090909091" from="-28842830" to="-9776916"/>
	<trip id="test_trip_242" type="type1" depart="22.0" from="-37282869#0" to="-97129661"/>
	<trip id="test_trip_243" type="type1" depart="22.09090909090909" from="42919373#1" to="30001816"/>
	<trip id="test_trip_244" type="type1" depart="22.18181818181818" from="-82410880#0" to="126895736"/>
	<trip id="test_trip_245" type="type1" depart="22.27272727272727" from="28408160#0" to="-126895740"/>
	<trip id="test_trip_246" type="type1" depart="22.36363636363636" from="114555768#1" to="122948839#0"/>
	<trip id="test_trip_247" type="type1" depart="22.45454545454545" from="572656879" to="37293912#1"/>
	<trip id="test_trip_248" type="type1" depart="22.54545454545454" from="317000784#0" to="126895736"/>
	<trip id="test_trip_249" type="type1" depart="22.63636363636363" from="21564980#0" to="77615451#1"/>
	<trip id="test_trip_250" type="type1" depart="22.72727272727272" from="-114554800" to="22672072"/>
	<trip id="test_trip_251" type="type1" depart="22.81818181818181" from="342717767#1" to="126894682#1"/>
	<trip id="test_trip_252" type="type1" depart="22.9090909090909" from="127104869#0" to="122949520#0"/>
	<trip id="test_trip_253" type="type1" depart="22.99999999999999" from="-37282871#1" to="572656872#0"/>
	<trip id="test_trip_254" type="type1" depart="23.09090909090908" from="166564262" to="81522820#1"/>
	<trip id="test_trip_255" type="type1" depart="23.18181818181817" from="42107699#0" to="186631612#1"/>
	<trip id="test_trip_256" type="type1" depart="23.27272727272726" from="-344789092" to="28408160#0"/>
	<trip id="test_trip_257" type="type1" depart="23.36363636363635" from="217189186#0" to="42107700#1"/>
	<trip id="test_trip_258" type="type1" depart="23.45454545454544" from="29872531" to="24673380"/>
	<trip id="test_trip_259" type="type1" depart="23.54545454545453" from="123635330" to="27132254#0"/>
	<trip id="test_trip_260" type="type1" depart="23.63636363636362" from="-81527789#0" to="-37287288"/>
	<trip id="test_trip_261" type="type1" depart="23.72727272727271" from="-44960714#1" to="33887120"/>
	<trip id="test_trip_262" type="type1" depart="23.8181818181818" from="315526581#2" to="-80727853"/>
	<trip id="test_trip_263" type="type1" depart="23.90909090909089" from="114554802#3" to="61059623"/>
	<trip id="test_trip_264" type="type1" depart="23.99999999999998" from="332399561#2" to="314642995#1"/>
	<trip id="test_trip_265" type="type1" depart="24.09090909090907" from="-81924137#0" to="126894682#1"/>
	<trip id="test_trip_266" type="type1" depart="24.18181818181816" from="30568275#0" to="-126895740"/>
	<trip id="test_trip_267" type="type1" depart="24.27272727272725" from="29064946#0" to="15101958"/>
	<trip id="test_trip_268" type="type1" depart="24.36363636363634" from="28228803#1" to="-344789092"/>
	<trip id="test_trip_269" type="type1" depart="24.45454545454543" from="30529498" to="126894682#1"/>
	<trip id="test_trip_270" type="type1" depart="24.54545454545452" from="-21081120#0" to="-126897923#0"/>
	<trip id="test_trip_271" type="type1" depart="24.63636363636361" from="314642995#1" to="-114554759#0"/>
	<trip id="test_trip_272" type="type1" depart="24.727272727272698" from="122949520#0" to="27132254#0"/>
	<trip id="test_trip_273" type="type1" depart="24.818181818181788" from="-42919365" to="-76335649"/>
	<trip id="test_trip_274" type="type1" depart="24.909090909090878" from="-23180036" to="342534666#1"/>
	<trip id="test_trip_275" type="type1" depart="24.999999999999968" from="-122949520#0" to="122946787#0"/>
	<trip id="test_trip_276" type="type1" depart="25.090909090909058" from="-36729030" to="122949522"/>
	<trip id="test_trip_277" type="type1" depart="25.181818181818148" from="-47796503" to="-44960714#1"/>
	<trip id="test_trip_278" type="type1" depart="25.272727272727238" from="4236349" to="62212736#2"/>
	<trip id="test_trip_279" type="type1" depart="25.363636363636328" from="195828013" to="122949524#1"/>
	<trip id="test_trip_280" type="type1" depart="25.454545454545418" from="61059606#0" to="37282869#1"/>
	<trip id="test_trip_281" type="type1" depart="25.545454545454508" from="30260452" to="62212739#0"/>
	<trip id="test_trip_282" type="type1" depart="25.636363636363598" from="127104869#0" to="-126894678#3"/>
	<trip id="test_trip_283" type="type1" depart="25.727272727272688" from="-23180036" to="370070636"/>
	<trip id="test_trip_284" type="type1" depart="25.818181818181777" from="21564980#0" to="342717767#1"/>
	<trip id="test_trip_285" type="type1" depart="25.909090909090867" from="114555768#1" to="26692016"/>
	<trip id="test_trip_286" type="type1" depart="25.999999999999957" from="1039345572#0" to="82410880#1"/>
	<trip id="test_trip_287" type="type1" depart="26.090909090909047" from="33887120" to="-314403237#1"/>